Mass spectrum: Apigenin 6-C glycoside; MS2; in source CID; [M+H]+; 30V
Name: Apigenin 6-C glycoside
Class: CLASS1 Flavonoid
Class: CLASS2 Flavone
Class: CLASS3 Apigenin glycoside
Formula: C21H20O10
Exact mass: 432.11 
Ion type: [M+H]+
Precursor m/z: 433.1
m/z	relative intensity
415	100
397	100
367	100
337	100
313	100
283	100
