Mass spectrum: L-Alanine; MS2; QqQ; [M+H]+; 18
Name: L-Alanine
Class: CLASS1 Amino acid
Class: CLASS2 Alanine
Formula: C3H7N1O2
Exact mass: 89.05 
Ion type: [M+H]+
Precursor m/z: 90
m/z	relative intensity
44	100
