Mass spectrum: 1,3-O-Dicaffeoylglycerol; MS2; QIT; [M-H]-; n.d.
Name: 1,3-O-Dicaffeoylglycerol
Class: CLASS1 Phenylpropanoid
Class: CLASS2 Phenylpropanoid ester
Class: CLASS3 Glycerol
Formula: C21H20O9
Exact mass: 416.11 
Ion type: [M-H]-
Precursor m/z: 415
m/z	relative intensity
415	100
253	95
161	32
135	7
179	6
