Mass spectrum: 3'-O-Methylluteolin 6-C-glucoside; MS2; in source CID; [M+H]+; 30V
Name: 3'-O-Methylluteolin 6-C-glucoside
Class: CLASS1 Flavonoid
Class: CLASS2 Flavone
Class: CLASS3 Isoscoparin glycoside
Formula: C22H22O11
Exact mass: 462.12 
Ion type: [M+H]+
Precursor m/z: 463
m/z	relative intensity
445	100
427	100
409	100
367	100
343	100
313	100
