Mass spectrum: Isoorientin; MS2; in source CID; [M+H]+; 30V
Name: Isoorientin
Class: CLASS1 Flavonoid
Class: CLASS2 Flavone
Class: CLASS3 Luteolin glycoside
Formula: C21H20O11
Exact mass: 448.10 
Ion type: [M+H]+
Precursor m/z: 449
m/z	relative intensity
431	100
413	100
383	100
353	100
329	100
299	100
