Mass spectrum: Saponin F; MS2; QIT; [M-H]-; 36->40%
Name: Saponin F
Class: CLASS1 Terpenoid
Class: CLASS2 Triterpenoid
Class: CLASS3 Other
Formula: C55H88O26
Exact mass: 1164.56 
Ion type: [M-H]-
Precursor m/z: 1163
m/z	relative intensity
1163	60
1031	100
