Mass spectrum: 3-Rhamnosyl-galctosyl-glucosyl-soyasapogenol B; MS2; QIT; [M-H]-; n.d.
Name: 3-Rhamnosyl-galctosyl-glucosyl-soyasapogenol B
Class: CLASS1 Terpenoid
Class: CLASS2 Triterpenoid
Class: CLASS3 Soyasapogenol
Formula: C49H82O17
Exact mass: 942.56 
Ion type: [M-H]-
Precursor m/z: 941.5
m/z	relative intensity
940.8	18
922.8	30
878.9	27
794.7	12
732.8	40
632.7	4
614.7	38
524.8	100
456.9	20
