Mass spectrum: Tanshindiol C; MS2; QIT; [M+H]+; 45%
Name: Tanshindiol C
Class: CLASS1 Terpenoid
Class: CLASS2 Diterpenoid
Class: CLASS3 Tanshindiol
Formula: C18H16O5
Exact mass: 312.10 
Ion type: [M+H]+
Precursor m/z: 313
m/z	relative intensity
295	100
285	4
267	16
