Mass spectrum: O-hexosyl-2''-O-rhamnosyl-C-hexosylapigenin; MS2; QIT; [M-H]-; 0.3->2V
Name: O-hexosyl-2''-O-rhamnosyl-C-hexosylapigenin
Class: CLASS1 Flavonoid
Class: CLASS2 Flavone
Class: CLASS3 Apigenin glycoside
Formula: C33H40O19
Exact mass: 740.22 
Ion type: [M-H]-
Precursor m/z: 739
m/z	relative intensity
577	100
457	1
413	15
293	2
