Mass spectrum: (-)-N-[4'-Hydroxy-(E)-cinnamoyl]-L-tyrosine; MS2; QIT; [M+H]+; n.d.
Name: (-)-N-[4'-Hydroxy-(E)-cinnamoyl]-L-tyrosine
Name: N-p-coumaroyl-L-tyrosine
Class: CLASS1 Amino acid
Class: CLASS2 Tyrosine
Formula: C18H17N1O5
Exact mass: 327.11 
Ion type: [M+H]+
Precursor m/z: 328
m/z	relative intensity
677	100
693	51
1020	38
1004	32
147	30
328	25
350	24
