Mass spectrum: N-acetyl-L-lysine; MS2; QqQ; [M-H]-; -16
Name: N-acetyl-L-lysine
Class: CLASS1 Amino acid
Class: CLASS2 Lysine
Formula: C8H16N2O3
Exact mass: 188.12 
Ion type: [M-H]-
Precursor m/z: 187
m/z	relative intensity
145	100
143	12
