Mass spectrum: Ganolucidic acid A; MS2; QIT; [M-H]-; 30->50%
Name: Ganolucidic acid A
Class: CLASS1 Terpenoid
Class: CLASS2 Triterpenoid
Class: CLASS3 Ganolucidic acid
Formula: C30H44O6
Exact mass: 500.31 
Ion type: [M-H]-
Precursor m/z: 499
m/z	relative intensity
499	100
481	100
455	7
437	77
287	57
285	88
233	15
