Mass spectrum: Chrysin; MS2; QIT; [M-H]-; 45%
Name: Chrysin
Class: CLASS1 Flavonoid
Class: CLASS2 Flavone
Class: CLASS3 Chrysin
Formula: C15H10O4
Exact mass: 254.06 
Ion type: [M-H]-
Precursor m/z: 253
m/z	relative intensity
253	100
225	1
209	75
181	2
165	2
143	1
