Mass spectrum: Galloyloxypaeoniflorin; MS2; QIT; [M+H]+; n.d.
Name: Galloyloxypaeoniflorin
Name: 6-O-Galloyloxypaeoniflorin
Class: CLASS1 Flavonoid
Class: CLASS2 Isoflavone
Class: CLASS3 Genistein glycoside
Formula: C27H30O15
Exact mass: 594.16 
Ion type: [M+H]+
Precursor m/z: 595.6017
m/z	relative intensity
595	80
433	100
271	40
