Mass spectrum: Procyanidin B2; MS2; QqQ; [M+H]+; n.d.
Name: Procyanidin B2
Name: epicatechin-(4beta->8)-epicatechin
Class: CLASS1 Tannin
Class: CLASS2 Proanthocyanidin
Formula: C30H26O12
Exact mass: 578.14 
Ion type: [M+H]+
Precursor m/z: 579
m/z	relative intensity
561	12
427	100
409	87
291	25
