Mass spectrum: 2',4'-Dihydroxy-4-methoxychalcone; MS2; QIT; [M-H]-; 5->10%
Name: 2',4'-Dihydroxy-4-methoxychalcone
Class: CLASS1 Flavonoid
Class: CLASS2 Chalcone
Class: CLASS3 Chalcone
Formula: C16H14O4
Exact mass: 270.09 
Ion type: [M-H]-
Precursor m/z: 269
m/z	relative intensity
269	7
254	100
227	23
225	2
148	30
