Mass spectrum: Ginsenoside F2; MS2; Q-TOF; [M+H]+; 6->10V
Name: Ginsenoside F2
Class: CLASS1 Terpenoid
Class: CLASS2 Triterpenoid
Class: CLASS3 Ginsenoside
Formula: C42H72O13
Exact mass: 784.50 
Ion type: [M+H]+
Precursor m/z: 785.4985
m/z	relative intensity
623.445	67
605.4434	100
587.431	82
461.7453	29
