Mass spectrum: O-Hydroxychalcone; MS2; QIT; [M-H]-; 5->10%
Name: O-Hydroxychalcone
Class: CLASS1 Flavonoid
Class: CLASS2 Chalcone
Class: CLASS3 Chalcone
Formula: C15H12O2
Exact mass: 224.08 
Ion type: [M-H]-
Precursor m/z: 223
m/z	relative intensity
223	6
221	41
205	18
195	100
193	3
93	3
145	2
