Mass spectrum: Cyanidin 3-(sinapoyl)diglucoside-5-(sinapoyl)glucoside; MS2; QIT; [M]+; n.d.
Name: Cyanidin 3-(sinapoyl)diglucoside-5-(sinapoyl)glucoside
Class: CLASS1 Flavonoid
Class: CLASS2 Anthocyanin
Class: CLASS3 Cyanidin glycoside
Formula: C55H61O29
Exact mass: 1185.33 
Ion type: [M]+
Precursor m/z: 1185
m/z	relative intensity
817	100
655	100
