Mass spectrum: Petunidin 3,5-diglucoside; MS2; QIT; [M]+; 50%
Name: Petunidin 3,5-diglucoside
Class: CLASS1 Flavonoid
Class: CLASS2 Anthocyanin
Class: CLASS3 Petunidin glycoside
Formula: C28H33O17
Exact mass: 641.17 
Ion type: [M]+
Precursor m/z: 641
m/z	relative intensity
479	100
407	100
317	100
