Mass spectrum: Symplocoside like saponin 6b; MS2; LIT; [M-H]-; 100V
Name: Symplocoside like saponin 6b
Class: CLASS1 Flavonoid
Class: CLASS2 Flavonol
Class: CLASS3 Symplocoside
Formula: C67H100O24
Exact mass: 1288.66 
Ion type: [M-H]-
Precursor m/z: 1287
m/z	relative intensity
1245	100
915	100
841	100
719	100
147	100
101	100
