Mass spectrum: Posthumulone; MS2; QIT; [M-H]-; 30V
Name: Posthumulone
Class: CLASS1 Other
Class: CLASS2 Phenol
Class: CLASS3 Phloroglucinol
Formula: C19H26O5
Exact mass: 334.18 
Ion type: [M-H]-
Precursor m/z: 333
m/z	relative intensity
264	100
265	8
194	2
315	1
219	1
287	1
221	1
