Mass spectrum: 1-O-Caffeoylglycerol; MS2; QIT; [M-H]-; n.d.
Name: 1-O-Caffeoylglycerol
Class: CLASS1 Phenylpropanoid
Class: CLASS2 Phenylpropanoid ester
Class: CLASS3 Glycerol
Formula: C12H14O6
Exact mass: 254.08 
Ion type: [M-H]-
Precursor m/z: 253
m/z	relative intensity
135	100
179	30
