Mass spectrum: Dehydrocorydaline; MS2; QIT; [M]; 23%
Name: Dehydrocorydaline
Class: CLASS1 Alkaloid
Class: CLASS2 Isoquinoline
Class: CLASS3 Corydaline
Formula: C22H24N1O4
Exact mass: 366.17 
Ion type: [M]
Precursor m/z: 366
m/z	relative intensity
366.2	48
351.2	100
322.3	10
