Mass spectrum: Ginsenoside Rh2; MS2; Q-TOF; [M+H]+; 6->10V
Name: Ginsenoside Rh2
Class: CLASS1 Terpenoid
Class: CLASS2 Triterpenoid
Class: CLASS3 Ginsenoside
Formula: C36H62O8
Exact mass: 622.44 
Ion type: [M+H]+
Precursor m/z: 623.4507
m/z	relative intensity
540.2374	84
461.3986	77
443.3967	100
