Mass spectrum: Trijuganone; MS2; QIT; [M+H]+; n.d.
Name: Trijuganone
Class: CLASS1 Terpenoid
Class: CLASS2 Diterpenoid
Class: CLASS3 Royleanone
Exact mass: no data
Ion type: [M+H]+
Precursor m/z: 353
m/z	relative intensity
331	100
313	100
