Mass spectrum: Benzyl Glucotropaeolin; MS2; QIT; [M-H]-; 35
Name: Benzyl Glucotropaeolin
Class: CLASS1 Glucosinolate
Class: CLASS2 Benzyl glucosinolate
Formula: C14H19N1O9S2
Exact mass: 409.05 
Ion type: [M-H]-
Precursor m/z: 408
m/z	relative intensity
328	100
275	100
259	100
241	100
230	100
212	100
195	100
166	100
