Mass spectrum: Biochanin A beta-d-diglucoside; MS2; QIT; [M+H]+; 4.0V
Name: Biochanin A beta-d-diglucoside
Class: CLASS1 Flavonoid
Class: CLASS2 Isoflavone
Class: CLASS3 Biochanin glycoside
Formula: C28H32O15
Exact mass: 608.17 
Ion type: [M+H]+
Precursor m/z: 609.5526
m/z	relative intensity
647	96
609	100
447	90
285	16
