Mass spectrum: 1-O-Sinapoylglucose; MS2; QIT; [M+Na]+; 15->55V
Name: 1-O-Sinapoylglucose
Name: Sinapoyltransferase, sinapoylglucose-malate
Class: CLASS1 Phenylpropanoid
Class: CLASS2 Phenylpropanoid glycoside
Class: CLASS3 Sinapoyl glycoside
Formula: C17H22O10
Exact mass: 386.12 
Ion type: [M+Na]+
Precursor m/z: 409.114
m/z	relative intensity
409.114	4
387.131	1
225.076	17
207.067	100
175.04	13
147.043	4
119.049	3
