Mass spectrum: 2'-O-Glucoginsenoside-Rf; MS2; Q-TOF; [M+H]+; 6->10V
Name: 2'-O-Glucoginsenoside-Rf
Class: CLASS1 Terpenoid
Class: CLASS2 Triterpenoid
Class: CLASS3 Ginsenoside
Formula: C48H82O19
Exact mass: 962.55 
Ion type: [M+H]+
Precursor m/z: 963.5542
m/z	relative intensity
801.5035	78
621.4284	100
603.4288	36
477.3954	23
441.4041	17
