Mass spectrum: Bavachinin A; MS2; QIT; [M+H]+; n.d.
Name: Bavachinin A
Class: CLASS1 Flavonoid
Class: CLASS2 Flavone
Class: CLASS3 Bavachinin
Formula: C21H22O4
Exact mass: 338.15 
Ion type: [M+H]+
Precursor m/z: 339
m/z	relative intensity
119	5
147	15
177	10
219	30
283	100
321	5
391	15
727	5
