Mass spectrum: 2a,7b,10b,13a-Tetraacetoxy-5a-phenylisoserinatoxy-2(3-20)-abeo-taxa-4(20),11-dien-9-one; MS2; QqQ; [M+H]+; 25V
Name: 2a,7b,10b,13a-Tetraacetoxy-5a-phenylisoserinatoxy-2(3-20)-abeo-taxa-4(20),11-dien-9-one
Class: CLASS1 Other
Class: CLASS2 Other
Class: CLASS3 Other
Exact mass: no data
Ion type: [M+H]+
Precursor m/z: 726
m/z	relative intensity
210	100
261	65
279	80
339	35
399	35
501	80
589	25
649	15
