Mass spectrum: Oleuropein_aglycone; MS2; QqQ; [M-H]-; 30V
Name: Oleuropein_aglycone
Class: CLASS1 Other
Class: CLASS2 Carboxylic acid
Class: CLASS3 Oleuropein
Formula: C19H22O8
Exact mass: 378.13 
Ion type: [M-H]-
Precursor m/z: 377
m/z	relative intensity
307	100
275	90
139	16
111	7
