Mass spectrum: Malvidin 3-glucoside 5-glucoside; MS2; TOF; [M]+; 400V
Name: Malvidin 3-glucoside 5-glucoside
Name: malvin
Class: CLASS1 Flavonoid
Class: CLASS2 Anthocyanin
Class: CLASS3 Malvin
Formula: C29H35O17
Exact mass: 655.19 
Ion type: [M]+
Precursor m/z: 655
m/z	relative intensity
521	100
493	100
373	100
359	100
343	100
331	100
330	100
181	100
150	100
121	100
