Mass spectrum: 1,2-Dihydrotanshinone I; MS2; QIT; [M+H]+; 45%
Name: 1,2-Dihydrotanshinone I
Class: CLASS1 Terpenoid
Class: CLASS2 Diterpenoid
Class: CLASS3 Tanshinone
Formula: C18H14O3
Exact mass: 278.09 
Ion type: [M+H]+
Precursor m/z: 279
m/z	relative intensity
261	100
233	9
