Mass spectrum: Pelargonidin 3-(p-coumaroyl)diglucoside-5-(malonyl)glucoside; MS2; QIT; [M]+; n.d.
Name: Pelargonidin 3-(p-coumaroyl)diglucoside-5-(malonyl)glucoside
Class: CLASS1 Flavonoid
Class: CLASS2 Anthocyanin
Class: CLASS3 Pelargonidin glycoside
Formula: C45H49O25
Exact mass: 989.26 
Ion type: [M]+
Precursor m/z: 989
m/z	relative intensity
741	100
519	100
