Mass spectrum: Sinapoyl choline dehydro dimer-isomer; MS2; QIT; [M+Na]+; 15->55V
Name: Sinapoyl choline dehydro dimer-isomer
Class: CLASS1 Phenylpropanoid
Class: CLASS2 Phenylpropanoid ester
Class: CLASS3 Choline
Formula: C32H46N2O10
Exact mass: 618.32 
Precursor m/z: 309.163
m/z	relative intensity
309.163	100
279.625	65
250.084	38
