Mass spectrum: Notoginsenoside R4; MS2; Q-TOF; [M+H]+; 6->10V
Name: Notoginsenoside R4
Class: CLASS1 Terpenoid
Class: CLASS2 Triterpenoid
Class: CLASS3 Notoginsenoside
Formula: C59H100O27
Exact mass: 1240.65 
Ion type: [M+H]+
Precursor m/z: 1241.6539
m/z	relative intensity
1109.63104	75
1079.6015	100
947.5589	43
785.5032	70
