Mass spectrum: Jatrorrhizine; MS2; QIT; [M]; 23%
Name: Jatrorrhizine
Class: CLASS1 Alkaloid
Class: CLASS2 Isoquinoline
Class: CLASS3 Jatrorrhizine
Formula: C20H20N1O4
Exact mass: 338.14 
Ion type: [M]
Precursor m/z: 338
m/z	relative intensity
338.1	58
323.1	100
294.2	10
