Mass spectrum: 2''-O-Pentosyl-6-C-hexosyl-methylluteolin; MS2; QIT; [M-H]-; 0.3->2V
Name: 2''-O-Pentosyl-6-C-hexosyl-methylluteolin
Class: CLASS1 Flavonoid
Class: CLASS2 Flavone
Class: CLASS3 Isoscoparin glycoside
Formula: C27H30O15
Exact mass: 594.16 
Ion type: [M-H]-
Precursor m/z: 593
m/z	relative intensity
503	3
473	25
443	65
371	8
353	6
341	6
323	100
