Mass spectrum: Ginsenoside Rb2/Rb3/Rc; MS2; QIT; [M-H]-; n.d.
Name: Ginsenoside Rb2/Rb3/Rc
Class: CLASS1 Terpenoid
Class: CLASS2 Triterpenoid
Class: CLASS3 Ginsenoside
Formula: C53H90O22
Exact mass: 1078.59 
Ion type: [M-H]-
Precursor m/z: 1077
m/z	relative intensity
945	100
915	100
783	100
621	100
459	100
