Mass spectrum: Yohimbine; MS2; QIT; [M+H]+; 50%
Name: Yohimbine
Class: CLASS1 Alkaloid
Class: CLASS2 Indole
Class: CLASS3 Yohimbine
Formula: C21H26N2O3
Exact mass: 354.19 
Ion type: [M+H]+
Precursor m/z: 355
m/z	relative intensity
212	100
144	28
180	1
194	2
224	20
294	3
325	5
338	4
355	10
