Mass spectrum: Gossypetin-7-O-rha; MS2; QqQ; [M-H]-; -45
Name: Gossypetin-7-O-rha
Class: CLASS1 Flavonoid
Class: CLASS2 Flavonol
Class: CLASS3 Gossypetin glycoside
Formula: C21H20O12
Exact mass: 464.10 
Ion type: [M-H]-
Precursor m/z: 463
m/z	relative intensity
463	100
316	20
317	100
