Mass spectrum: Luteolin C-glucoside C-xyloside; MS2; in source CID; [M+H]+; 30V
Name: Luteolin C-glucoside C-xyloside
Class: CLASS1 Flavonoid
Class: CLASS2 Flavone
Class: CLASS3 Luteolin glycoside
Formula: C26H28O15
Exact mass: 580.14 
Ion type: [M+H]+
Precursor m/z: 581.2
m/z	relative intensity
563	100
545	100
527	100
497	100
485	100
473	100
461	100
443	100
425	100
