Mass spectrum: Isovitexin; MS2; QqQ; [M-H]-; -30
Name: Isovitexin
Class: CLASS1 Flavonoid
Class: CLASS2 Flavone
Class: CLASS3 Apigenin glycoside
Formula: C21H20O10
Exact mass: 432.11 
Ion type: [M-H]-
Precursor m/z: 431
m/z	relative intensity
431	15
353	5
341	40
311	100
269	5
