Mass spectrum: Apigenin; MS2; QIT; [M-H]-; 45%
Name: Apigenin
Class: CLASS1 Flavonoid
Class: CLASS2 Flavone
Class: CLASS3 Apigenin
Formula: C15H10O5
Exact mass: 270.05 
Ion type: [M-H]-
Precursor m/z: 269
m/z	relative intensity
269	60
241	1
227	3
225	100
201	40
183	4
181	2
159	1
151	10
149	36
107	1
117	1
