Mass spectrum: Luteolin 6-C-hexoside-8-C-pentoside; MS2; QIT; [M-H]-; 25->30%
Name: Luteolin 6-C-hexoside-8-C-pentoside
Class: CLASS1 Flavonoid
Class: CLASS2 Flavone
Class: CLASS3 Luteolin glycoside
Formula: C26H28O15
Exact mass: 580.14 
Ion type: [M-H]-
Precursor m/z: 579
m/z	relative intensity
561	7
519	5
589	28
459	100
399	85
369	55
