Mass spectrum: Dicaffeoylglycerol; MS2; QIT; [M-H]-; n.d.
Name: Dicaffeoylglycerol
Class: CLASS1 Phenylpropanoid
Class: CLASS2 Phenylpropanoid glycoside
Class: CLASS3 Caffeoyl glucoside
Formula: C21H20O9
Exact mass: 416.11 
Ion type: [M-H]-
Precursor m/z: 415
m/z	relative intensity
415	100
253	67
179	32
161	18
135	9
