Mass spectrum: Pinocembrin; MS2; QIT; [M-H]-; 30->34%
Name: Pinocembrin
Class: CLASS1 Flavonoid
Class: CLASS2 Flavanone
Class: CLASS3 Pinocembrin
Formula: C15H12O4
Exact mass: 256.07 
Ion type: [M-H]-
Precursor m/z: 255
m/z	relative intensity
255	100
227	100
213	100
211	100
187	100
145	100
151	100
107	100
