Mass spectrum: 3-Methoxytyramine-betaxanthine; MS2; QIT; [M+H]+; n.d.
Name: 3-Methoxytyramine-betaxanthine
Name: 3-Methoxytyramine BX
Class: CLASS1 Other
Class: CLASS2 Other
Class: CLASS3 Other
Formula: C18H20N2O6
Exact mass: 360.13 
Ion type: [M+H]+
Precursor m/z: 361
m/z	relative intensity
361	100
