Mass spectrum: 3-Indolylmethyl glucosinolate; MS2; QIT; [M-H]-; 35
Name: 3-Indolylmethyl glucosinolate
Name: glucobrassicin
Class: CLASS1 Glucosinolate
Class: CLASS2 Indole glucosinolate
Formula: C16H2N2O10S2
Exact mass: 447.92 
Ion type: [M-H]-
Precursor m/z: 447
m/z	relative intensity
275	100
259	100
251	100
205	100
