Mass spectrum: Coptisine; MS2; QIT; [M]; 23%
Name: Coptisine
Class: CLASS1 Alkaloid
Class: CLASS2 Isoquinoline
Class: CLASS3 Coptisine
Formula: C19H14N1O4
Exact mass: 320.09 
Ion type: [M]
Precursor m/z: 320
m/z	relative intensity
320.1	70
318.1	95
292.1	100
