Mass spectrum: Flavone; MS2; QIT; [M-H]-; 45%
Name: Flavone
Class: CLASS1 Flavonoid
Class: CLASS2 Flavone
Class: CLASS3 Flavone
Formula: C15H10O2
Exact mass: 222.24 
Ion type: [M-H]-
Precursor m/z: 221
m/z	relative intensity
221	100
193	100
