Mass spectrum: Coumaric acid O-glucoside; MS2; QIT; [M-H]-; 100%
Name: Coumaric acid O-glucoside
Class: CLASS1 Phenylpropanoid
Class: CLASS2 Phenylpropanoid glycoside
Class: CLASS3 Coumaroyl glycoside
Formula: C15H18O8
Exact mass: 326.10 
Ion type: [M-H]-
Precursor m/z: 325
m/z	relative intensity
163	100
145	92
187	48
265	18
205	10
235	9
289	7
