Mass spectrum: Orotic acid; MS2; QqQ; [M-H]-; -12
Name: Orotic acid
Class: CLASS1 Other
Class: CLASS2 Other
Class: CLASS3 Orotic acid
Formula: C5H4N2O4
Exact mass: 156.02 
Ion type: [M-H]-
Precursor m/z: 155
m/z	relative intensity
111	100
42	13
