Mass spectrum: Quercetin 3-O-rutinoside-7-O-glucoside, tentative; MS2; QIT; [M-H]-; 30->200%
Name: Quercetin 3-O-rutinoside-7-O-glucoside, tentative
Class: CLASS1 Flavonoid
Class: CLASS2 Flavonol
Class: CLASS3 Quercetin glycoside
Formula: C33H40O21
Exact mass: 772.21 
Ion type: [M-H]-
Precursor m/z: 771.7
m/z	relative intensity
609.4	100
301.3	100
