Mass spectrum: Cyanidin 3-caffeoylsophoroside-5-glucoside; MS2; QqQ; [M]+; 50%
Name: Cyanidin 3-caffeoylsophoroside-5-glucoside
Class: CLASS1 Flavonoid
Class: CLASS2 Anthocyanin
Class: CLASS3 Cyanidin glycoside
Formula: C42H47O24
Exact mass: 935.25 
Ion type: [M]+
Precursor m/z: 935
m/z	relative intensity
773	100
449	100
287	100
