Mass spectrum: Taxacin; MS2; QqQ; [M+H]+; 25V
Name: Taxacin
Class: CLASS1 Terpenoid
Class: CLASS2 Diterpenoid
Class: CLASS3 Taxacin
Formula: C44H48O15
Exact mass: 816.30 
Ion type: [M+H]+
Precursor m/z: 817
m/z	relative intensity
105	7
131	12
195	28
283	20
325	31
429	22
487	32
549	28
609	18
669	100
817	18
