Mass spectrum: (6aR, 11aR)-Vesticarpan; MS2; QIT; [M+H]+; 15->33%
Name: (6aR, 11aR)-Vesticarpan
Class: CLASS1 Flavonoid
Class: CLASS2 Pterocarpan
Class: CLASS3 Vesticarpan
Formula: C16H14O5
Exact mass: 286.08 
Ion type: [M+H]+
Precursor m/z: 287.2
m/z	relative intensity
269.2	4
259.2	5
255.2	19
193.1	4
177.1	20
153.1	100
147.1	11
