Mass spectrum: Isoorientin; MS2; QqQ; [M-H]-; -30
Name: Isoorientin
Class: CLASS1 Flavonoid
Class: CLASS2 Flavone
Class: CLASS3 Luteolin glycoside
Formula: C21H20O11
Exact mass: 448.10 
Ion type: [M-H]-
Precursor m/z: 447
m/z	relative intensity
447	65
429	65
357	100
327	100
285	50
