Mass spectrum: Methylene tanshinone; MS2; QIT; [M+H+60]+; n.d.
Name: Methylene tanshinone
Class: CLASS1 Terpenoid
Class: CLASS2 Diterpenoid
Class: CLASS3 Tanshinone
Formula: C20H18O5
Exact mass: 338.12 
Ion type: [M+H+60]+
Precursor m/z: 339
m/z	relative intensity
301	100
279	100
261	100
233	100
