Mass spectrum: Caffeic acid O-glucoside; MS2; QIT; [M-H]-; 100%
Name: Caffeic acid O-glucoside
Class: CLASS1 Phenylpropanoid
Class: CLASS2 Phenylpropanoid glycoside
Class: CLASS3 Caffeoyl glucoside
Formula: C15H18O9
Exact mass: 342.10 
Ion type: [M-H]-
Precursor m/z: 341
m/z	relative intensity
179	100
161	18
143	13
149	3
131	3
125	2
