Mass spectrum: 14-Acetylbearline; MS2; QIT; [M+H]+; 10->30%
Name: 14-Acetylbearline
Class: CLASS1 Alkaloid
Class: CLASS2 Isoquinoline
Class: CLASS3 Berberine
Formula: C39H50N2O12
Exact mass: 738.34 
Ion type: [M+H]+
Precursor m/z: 739
m/z	relative intensity
739	7
721	3
707	54
689	2
679	100
675	8
647	12
629	2
615	10
382	2
