Mass spectrum: trans-Resveratrol O-glucoside; MS2; QIT; [M-H]-; 100%
Name: trans-Resveratrol O-glucoside
Class: CLASS1 Stilbenoid
Class: CLASS2 Resveratrol
Class: CLASS3 Resveratrol glycoside
Formula: C20H22O8
Exact mass: 390.13 
Ion type: [M-H]-
Precursor m/z: 389
m/z	relative intensity
227	100
305	14
185	1
175	2
