Mass spectrum: L-Serine; MS2; QqQ; [M-H]-; -14
Name: L-Serine
Class: CLASS1 Amino acid
Class: CLASS2 Serine
Formula: C3H7N1O3
Exact mass: 105.04 
Ion type: [M-H]-
Precursor m/z: 104
m/z	relative intensity
74	100
