Mass spectrum: Rhamnosyl-hexosyl-hexosyl-soyasapogenol E; MS2; QIT; [M-H]-; n.d.
Name: Rhamnosyl-hexosyl-hexosyl-soyasapogenol E
Class: CLASS1 Terpenoid
Class: CLASS2 Triterpenoid
Class: CLASS3 Soyasapogenol glycoside
Formula: C48H78O17
Exact mass: 926.52 
Ion type: [M-H]-
Precursor m/z: 925.5
m/z	relative intensity
778.5	80
616.4	100
454.6	15
