Mass spectrum: Symplocoside like saponin 2b; MS2; LIT; [M-H]-; 100V
Name: Symplocoside like saponin 2b
Class: CLASS1 Flavonoid
Class: CLASS2 Flavonol
Class: CLASS3 Symplocoside
Formula: C61H96O22
Exact mass: 1180.64 
Ion type: [M-H]-
Precursor m/z: 1179
m/z	relative intensity
807	100
761	100
639	100
489	100
167	100
