Mass spectrum: Deoxyaconitine; MS2; QIT; [M+H]+; 25->42%
Name: Deoxyaconitine
Class: CLASS1 Alkaloid
Class: CLASS2 Diterpene
Class: CLASS3 Aconitine
Formula: C34H47N1O10
Exact mass: 629.32 
Ion type: [M+H]+
Precursor m/z: 630
m/z	relative intensity
538	5
570	100
598	8
630	55
