Mass spectrum: 3-Glucosyl-28-glucosyl-medicagenic acid; MS2; QIT; [M-H]-; n.d.
Name: 3-Glucosyl-28-glucosyl-medicagenic acid
Class: CLASS1 Terpenoid
Class: CLASS2 Triterpenoid
Class: CLASS3 Medicagenic acid
Formula: C42H66O16
Exact mass: 826.44 
Ion type: [M-H]-
Precursor m/z: 825.4
m/z	relative intensity
662.4	5
600.2	30
438.6	100
