Mass spectrum: Cryptotanshinone; MS2; QIT; [M+H]+; n.d.
Name: Cryptotanshinone
Class: CLASS1 Terpenoid
Class: CLASS2 Diterpenoid
Class: CLASS3 Cryptotanshinone
Formula: C19H20O3
Exact mass: 296.14 
Ion type: [M+H]+
Precursor m/z: 297
m/z	relative intensity
279	100
251	100
