Mass spectrum: Ethanolamine; MS2; QqQ; [M+H]+; 16
Name: Ethanolamine
Class: CLASS1 Other
Class: CLASS2 Other
Class: CLASS3 Ethanol
Formula: C2H7N1O1
Exact mass: 61.05 
Ion type: [M+H]+
Precursor m/z: 62
m/z	relative intensity
45	33
44	100
