Mass spectrum: Trijuganone C; MS2; QIT; [M+H]+; 45%
Name: Trijuganone C
Class: CLASS1 Terpenoid
Class: CLASS2 Diterpenoid
Class: CLASS3 Trijuganone
Formula: C20H20O5
Exact mass: 340.13 
Ion type: [M+H]+
Precursor m/z: 341
m/z	relative intensity
313	4
281	100
263	46
235	12
220	1
