Mass spectrum: trans-Resveratrol; MS2; QIT; [M-H]-; 100%
Name: trans-Resveratrol
Class: CLASS1 Stilbenoid
Class: CLASS2 Resveratrol
Formula: C30H26O12
Exact mass: 578.14 
Ion type: [M-H]-
Precursor m/z: 577
m/z	relative intensity
425	100
407	61
289	24
451	16
245	16
287	16
