Mass spectrum: L-Asparagine; MS2; QqQ; [M+H]+; 22
Name: L-Asparagine
Class: CLASS1 Amino acid
Class: CLASS2 Asparagine
Formula: C4H8N2O3
Exact mass: 132.05 
Ion type: [M+H]+
Precursor m/z: 133
m/z	relative intensity
116	29
87	63
70	11
74	100
88	28
46	9
