Mass spectrum: Kaempferol 3-sinapoyl triglucoside; MS2; QIT; [M-H]-; 100%
Name: Kaempferol 3-sinapoyl triglucoside
Class: CLASS1 Flavonoid
Class: CLASS2 Flavonol
Class: CLASS3 Kaempferol glycoside
Formula: C44H50O25
Exact mass: 978.26 
Ion type: [M-H]-
Precursor m/z: 977
m/z	relative intensity
977	100
771	100
609	100
429	100
284	100
