Mass spectrum: Luteolinidin 5-glucoside; MS2; QIT; [M]+; n.d.
Name: Luteolinidin 5-glucoside
Class: CLASS1 Flavonoid
Class: CLASS2 Flavone
Class: CLASS3 Luteolin glycoside
Formula: C21H21O10Cl1
Exact mass: 433.11 
Ion type: [M]+
Precursor m/z: 433
m/z	relative intensity
271	100
