Mass spectrum: Gly-Trp-Gly; MS2; QIT; [M+H]+; 35%
Name: Gly-Trp-Gly
Class: CLASS1 Amino acid
Class: CLASS2 Peptide
Class: CLASS3 Oligo peptide
Formula: C15H18N4O4
Exact mass: 318.13 
Ion type: [M+H]+
Precursor m/z: 319
m/z	relative intensity
301	2
244	100
