Mass spectrum: 2-Deacetoxy-5-decinnamoyl taxinine J; MS2; QqQ; [M+H]+; 25V
Name: 2-Deacetoxy-5-decinnamoyl taxinine J
Class: CLASS1 Terpenoid
Class: CLASS2 Diterpenoid
Class: CLASS3 Taxinine
Exact mass: no data
Ion type: [M+H]+
Precursor m/z: 521
m/z	relative intensity
185	100
263	18
281	80
299	25
323	12
341	38
359	20
383	15
401	30
461	100
503	7
521	6
