Mass spectrum: Tryptophan. N-(1-thioxorthyl)-methyl ester; MS2; QIT; [M+H]+; 35%
Name: Tryptophan. N-(1-thioxorthyl)-methyl ester
Class: CLASS1 Amino acid
Class: CLASS2 Tryptophan
Formula: C14H16N2O2S1
Exact mass: 276.09 
Ion type: [M+H]+
Precursor m/z: 277
m/z	relative intensity
260	2
245	22
243	100
202	60
130	32
