Mass spectrum: Taxayuntin F; MS2; QqQ; [M+H]+; 25V
Name: Taxayuntin F
Class: CLASS1 Terpenoid
Class: CLASS2 Diterpenoid
Class: CLASS3 Taxayuntin
Formula: C33H42O12
Exact mass: 630.27 
Ion type: [M+H]+
Precursor m/z: 631
m/z	relative intensity
105	3
227	6
253	8
313	21
373	96
433	15
475	5
535	4
595	10
613	100
631	4
