Mass spectrum: Ginsenoside Rb2; MS2; QqQ; [M+H]+; n.d.
Name: Ginsenoside Rb2
Class: CLASS1 Terpenoid
Class: CLASS2 Triterpenoid
Class: CLASS3 Ginsenoside
Formula: C53H90O22
Exact mass: 1078.59 
Ion type: [M+H]+
Precursor m/z: 1079
m/z	relative intensity
899	100
737	100
767	100
605	100
443	100
325	100
295	100
163	100
