Mass spectrum: Trihydroxycinnamoylquinic acid; MS2; QIT; [M-H]-; n.d.
Name: Trihydroxycinnamoylquinic acid
Class: CLASS1 Phenylpropanoid
Class: CLASS2 Phenylpropanoid ester
Class: CLASS3 Quinic acid
Formula: C16H18O10
Exact mass: 370.09 
Ion type: [M-H]-
Precursor m/z: 369
m/z	relative intensity
369	1
195	36
151	47
191	100
