Mass spectrum: 3beta-Hydroxy-4,4,14-trimethyl-7,11,15-trioxochol-8-en-24-oic acid; MS2; QIT; [M-H]-; 30->50%
Name: 3beta-Hydroxy-4,4,14-trimethyl-7,11,15-trioxochol-8-en-24-oic acid
Class: CLASS1 Other
Class: CLASS2 Other
Class: CLASS3 Other
Formula: C27H38O6
Exact mass: 458.27 
Ion type: [M-H]-
Precursor m/z: 457
m/z	relative intensity
457	100
439	94
421	82
413	76
397	100
395	40
385	52
383	16
382	27
379	6
303	42
287	9
249	77
163	46
