Mass spectrum: Quercetin 3-sinapoyldiglucoside-7-glucoside; MS2; QIT; [M-H]-; 100%
Name: Quercetin 3-sinapoyldiglucoside-7-glucoside
Class: CLASS1 Flavonoid
Class: CLASS2 Flavonol
Class: CLASS3 Quercetin glycoside
Formula: C44H50O26
Exact mass: 994.26 
Ion type: [M-H]-
Precursor m/z: 993
m/z	relative intensity
993	100
831	100
625	100
445	100
300	100
