Mass spectrum: Notoginsenoside S; MS2; Q-TOF; [M+H]+; 6->10V
Name: Notoginsenoside S
Class: CLASS1 Terpenoid
Class: CLASS2 Triterpenoid
Class: CLASS3 Notoginsenoside
Formula: C63H106O30
Exact mass: 1342.68 
Ion type: [M+H]+
Precursor m/z: 1343.6841
m/z	relative intensity
1211.6414	35
1079.6009	100
947.5542	26
785.5043	49
