Mass spectrum: Apigenin 6,8-di-C-glucoside; MS2; QIT; [M-H]-; 30->200%
Name: Apigenin 6,8-di-C-glucoside
Name: Violantin
Class: CLASS1 Flavonoid
Class: CLASS2 Flavone
Class: CLASS3 Apigenin glycoside
Formula: C27H30O15
Exact mass: 594.16 
Ion type: [M-H]-
Precursor m/z: 393.7
m/z	relative intensity
503.2	100
473.3	100
383.5	100
353.7	100
