Mass spectrum: Gossypetin 3-O-glucose-7-O-xylose/arabinose; MS2; QqQ; [M+H]+; 15V
Name: Gossypetin 3-O-glucose-7-O-xylose/arabinose
Class: CLASS1 Flavonoid
Class: CLASS2 Flavonol
Class: CLASS3 Gossypetin glycoside
Formula: C26H28O17
Exact mass: 612.13 
Ion type: [M+H]+
Precursor m/z: 613
m/z	relative intensity
613	10
451	100
319	10
