Mass spectrum: Codeine; MS2; QIT; [M+H]+; 16%
Name: Codeine
Class: CLASS1 Alkaloid
Class: CLASS2 Benzylisoquinoline
Class: CLASS3 Codeine
Formula: C18H21N1O3
Exact mass: 299.15 
Ion type: [M+H]+
Precursor m/z: 300
m/z	relative intensity
243	63
225	34
215	100
199	11
183	18
155	5
282	33
253	8
267	6
175	6
161	5
