Mass spectrum: Baccatin iV; MS2; QqQ; [M+H]+; 25V
Name: Baccatin iV
Class: CLASS1 Terpenoid
Class: CLASS2 Diterpenoid
Class: CLASS3 Baccatin
Formula: C32H44O14
Exact mass: 652.27 
Ion type: [M+H]+
Precursor m/z: 653
m/z	relative intensity
253	25
293	65
311	62
353	40
371	55
413	35
431	33
473	32
491	100
533	78
593	65
