Mass spectrum: L-Homoserine; MS2; QqQ; [M+H]+; 16
Name: L-Homoserine
Class: CLASS1 Amino acid
Class: CLASS2 Homoserine
Formula: C4H9N1O3
Exact mass: 119.06 
Ion type: [M+H]+
Precursor m/z: 120
m/z	relative intensity
102	9
74	100
56	34
92	23
44	10
91	10
