Mass spectrum: Zeaxanthin; MS2; QIT; [M+H]+; 1.0V
Name: Zeaxanthin
Class: CLASS1 Terpenoid
Class: CLASS2 Carotenoid
Class: CLASS3 Zeaxanthin
Formula: C40H56O2
Exact mass: 568.43 
Ion type: [M+H]+
Precursor m/z: 569
m/z	relative intensity
551	100
569	13
476	12
429	10
415	8
533	7
