Mass spectrum: 1-Hydroxy-2-deacetoxy taxinine J; MS2; QqQ; [M+H]+; 25V
Name: 1-Hydroxy-2-deacetoxy taxinine J
Class: CLASS1 Terpenoid
Class: CLASS2 Diterpenoid
Class: CLASS3 Taxinine
Formula: C37H46O11
Exact mass: 666.30 
Ion type: [M+H]+
Precursor m/z: 667
m/z	relative intensity
131	72
221	33
239	68
261	42
279	100
297	38
339	40
357	34
399	38
459	35
547	34
607	11
667	12
