Mass spectrum: Isorhamnetin-3,7-diglucoside; MS2; QIT; [M-H]-; 0.3->2V
Name: Isorhamnetin-3,7-diglucoside
Class: CLASS1 Flavonoid
Class: CLASS2 Flavonol
Class: CLASS3 Isorhamnetin glycoside
Formula: C28H32O17
Exact mass: 640.16 
Ion type: [M-H]-
Precursor m/z: 639
m/z	relative intensity
519	11
477	100
315	17
