Mass spectrum: Caffeoyl-hexoside; MS2; QIT; [M-H]-; 0.3->2V
Name: Caffeoyl-hexoside
Class: CLASS1 Phenylpropanoid
Class: CLASS2 Phenylpropanoid glycoside
Class: CLASS3 Caffeoyl glucoside
Formula: C15H18O9
Exact mass: 342.10 
Ion type: [M-H]-
Precursor m/z: 341
m/z	relative intensity
179	100
161	42
