Mass spectrum: Gossypetin 7-O-rhamnose-8-O-glucose; MS2; QqQ; [M-H]-; 30V
Name: Gossypetin 7-O-rhamnose-8-O-glucose
Class: CLASS1 Flavonoid
Class: CLASS2 Flavonol
Class: CLASS3 Gossypetin glycoside
Formula: C27H30O17
Exact mass: 626.15 
Ion type: [M-H]-
Precursor m/z: 626
m/z	relative intensity
625	100
479	100
462	100
463	100
190	100
315	100
316	100
317	100
