Mass spectrum: C-Deoxyhexosylapigenin; MS2; QIT; [M-H]-; 0.3->2V
Name: C-Deoxyhexosylapigenin
Class: CLASS1 Flavonoid
Class: CLASS2 Flavone
Class: CLASS3 Apigenin glycoside
Formula: C21H20O9
Exact mass: 416.11 
Ion type: [M-H]-
Precursor m/z: 415
m/z	relative intensity
353	18
311	100
