Mass spectrum: 4-Hexosyloxybenzoylcholine; MS2; QIT; [M+Na]+; 15->55V
Name: 4-Hexosyloxybenzoylcholine
Class: CLASS1 Phenylpropanoid
Class: CLASS2 Phenylpropanoid ester
Class: CLASS3 Choline
Formula: C18H28N1O8
Exact mass: 386.18 
Precursor m/z: 386.18
m/z	relative intensity
386.18	21
327.11	4
224.126	2
165.053	100
121.027	2
