Mass spectrum: Quercetin 3-O-(caffeoyl)sophoroside-7-O-glucoside (isomer); MS2; QIT; [M-H]-; 0.3->2V
Name: Quercetin 3-O-(caffeoyl)sophoroside-7-O-glucoside (isomer)
Class: CLASS1 Flavonoid
Class: CLASS2 Flavonol
Class: CLASS3 Quercetin glycoside
Formula: C42H46O25
Exact mass: 950.23 
Ion type: [M-H]-
Precursor m/z: 949
m/z	relative intensity
787	100
625	50
