Mass spectrum: Resveratrol tetramer; MS2; QIT; [M-H]-; 100%
Name: Resveratrol tetramer
Class: CLASS1 Stilbenoid
Class: CLASS2 Resveratrol
Formula: C56H42O12
Exact mass: 906.27 
Ion type: [M-H]-
Precursor m/z: 905
m/z	relative intensity
811	100
359	33
799	25
451	11
545	5
887	4
717	2
