Mass spectrum: (all-E)-Lutein; MS2; QIT; [M+H]+; 20->10V
Name: (all-E)-Lutein
Class: CLASS1 Terpenoid
Class: CLASS2 Carotenoid
Class: CLASS3 Lutein
Formula: C40H56O2
Exact mass: 568.43 
Ion type: [M+H]+
Precursor m/z: 569
m/z	relative intensity
551	100
533	100
463	100
