Mass spectrum: Saponin F; MS2; QIT; [M+Na]+; 36->40%
Name: Saponin F
Class: CLASS1 Terpenoid
Class: CLASS2 Triterpenoid
Class: CLASS3 Other
Formula: C55H88O26
Exact mass: 1164.56 
Ion type: [M+Na]+
Precursor m/z: 1187
m/z	relative intensity
1187	30
1055	100
1041	50
923	2
909	3
775	8
757	15
611	3
569	10
509	1
449	2
