Mass spectrum: Acacetin; MS2; QqQ; [M-H]-; 35V
Name: Acacetin
Class: CLASS1 Flavonoid
Class: CLASS2 Flavone
Class: CLASS3 Apigenin glycoside
Formula: C16H12O5
Exact mass: 284.07 
Ion type: [M-H]-
Precursor m/z: 283
m/z	relative intensity
268	100
240	100
151	100
