Mass spectrum: Sinapoyl choline dimer-isomer; MS2; QIT; [M+Na]+; 15->55V
Name: Sinapoyl choline dimer-isomer
Class: CLASS1 Phenylpropanoid
Class: CLASS2 Phenylpropanoid ester
Class: CLASS3 Choline
Exact mass: no data
Precursor m/z: 332.129
m/z	relative intensity
332.129	7
251.09	70
207.067	44
175.041	100
147.042	51
119.048	53
92.553	29
59.073	11
