Mass spectrum: Ginsenoside Re; MS2; QIT; [M-H]-; n.d.
Name: Ginsenoside Re
Name: Sanchinoside Re
Class: CLASS1 Terpenoid
Class: CLASS2 Triterpenoid
Class: CLASS3 Ginsenoside
Formula: C48H82O18
Exact mass: 946.55 
Ion type: [M-H]-
Precursor m/z: 946
m/z	relative intensity
476	100
638	100
784	100
