Mass spectrum: 8-Methylthiooctylglucosinolate; MS2; QIT; [M+H]+; 25
Name: 8-Methylthiooctylglucosinolate
Class: CLASS1 Glucosinolate
Class: CLASS2 Aliphatic glucosinolate
Formula: C16H31N1O9S3
Exact mass: 477.12 
Ion type: [M+H]+
Precursor m/z: 398
m/z	relative intensity
236.114	78
218.105	10
170.1	13
155.088	7
145.054	12
138.128	100
127.039	5
112.102	23
93.07	19
85.031	12
69.071	5
