Mass spectrum: trans-Resveratrol; MS2; QIT; [M+H]+; 100%
Name: trans-Resveratrol
Class: CLASS1 Flavonoid
Class: CLASS2 Flavanol
Class: CLASS3 Catechin
Formula: C15H14O6
Exact mass: 290.08 
Ion type: [M+H]+
Precursor m/z: 291
m/z	relative intensity
123	100
139	74
165	32
273	21
151	20
147	10
249	1
