Mass spectrum: Gossypetin-7-O-rha-8-O-glu; MS2; QqQ; [M+H]+; 15
Name: Gossypetin-7-O-rha-8-O-glu
Class: CLASS1 Flavonoid
Class: CLASS2 Flavonol
Class: CLASS3 Gossypetin glycoside
Formula: C27H30O17
Exact mass: 626.15 
Ion type: [M+H]+
Precursor m/z: 627
m/z	relative intensity
627	15
481	5
465	100
319	75
