Mass spectrum: Herbacetin-3-O-glu-7-O-xylo/ara; MS2; QqQ; [M-H]-; -45
Name: Herbacetin-3-O-glu-7-O-xylo/ara
Class: CLASS1 Terpenoid
Class: CLASS2 Triterpenoid
Class: CLASS3 Hederagenin glycoside
Formula: C26H28O16
Exact mass: 596.14 
Ion type: [M-H]-
Precursor m/z: 595
m/z	relative intensity
595	100
463	100
432	100
433	33
299	100
300	100
301	100
