Mass spectrum: Isorhamnetin 3-glucoside; MS2; QIT; [M-H]-; 35
Name: Isorhamnetin 3-glucoside
Class: CLASS1 Flavonoid
Class: CLASS2 Flavonol
Class: CLASS3 Isorhamnetin glycoside
Formula: C22H22O12
Exact mass: 478.11 
Ion type: [M-H]-
Precursor m/z: 477
m/z	relative intensity
315	100
357	28
