Mass spectrum: Ginsenoside Rb1; MS2; QqQ; [M+H]+; n.d.
Name: Ginsenoside Rb1
Class: CLASS1 Terpenoid
Class: CLASS2 Triterpenoid
Class: CLASS3 Ginsenoside
Formula: C54H92O23
Exact mass: 1108.60 
Ion type: [M+H]+
Precursor m/z: 1109
m/z	relative intensity
947	100
929	100
785	100
767	100
605	100
443	100
325	100
343	100
163	100
181	100
