Mass spectrum: Salutaridine; MS2; QIT; [M+H]+; 16%
Name: Salutaridine
Class: CLASS1 Alkaloid
Class: CLASS2 Benzylisoquinoline
Class: CLASS3 Salutaridine
Formula: C19H21N1O4
Exact mass: 327.15 
Ion type: [M+H]+
Precursor m/z: 328
m/z	relative intensity
297	73
285	23
271	6
265	100
253	4
239	22
237	11
233	4
211	3
207	2
192	16
298	10
