Mass spectrum: C-Hexosylluteolin; MS2; QIT; [M-H]-; 0.3->2V
Name: C-Hexosylluteolin
Class: CLASS1 Flavonoid
Class: CLASS2 Flavone
Class: CLASS3 Luteolin glycoside
Formula: C21H20O11
Exact mass: 448.10 
Ion type: [M-H]-
Precursor m/z: 447
m/z	relative intensity
357	39
327	100
