Mass spectrum: Resveratrol dimer; MS2; QIT; [M-H]-; 100%
Name: Resveratrol dimer
Class: CLASS1 Stilbenoid
Class: CLASS2 Resveratrol
Exact mass: no data
Ion type: [M-H]-
Precursor m/z: 469
m/z	relative intensity
345	100
375	46
251	9
241	5
423	3
357	3
