Mass spectrum: Luteolin; MS2; QqQ; [M-H]-; 30V
Name: Luteolin
Class: CLASS1 Flavonoid
Class: CLASS2 Flavone
Class: CLASS3 Luteolin glycoside
Formula: C15H10O6
Exact mass: 286.05 
Ion type: [M-H]-
Precursor m/z: 285
m/z	relative intensity
133	35
199	13
107	10
217	10
175	8
