Mass spectrum: L-Argininosuccinic acid; MS2; QqQ; [M+H]+; 60
Name: L-Argininosuccinic acid
Class: CLASS1 Amino acid
Class: CLASS2 Arginine
Class: CLASS3 Argininosuccinic acid
Formula: C10H18N4O6
Exact mass: 290.12 
Ion type: [M+H]+
Precursor m/z: 291
m/z	relative intensity
70	100
116	27
88	19
