Mass spectrum: Ginsenoside RF; MS2; QqQ; [M+Na]+; 10V
Name: Ginsenoside RF
Class: CLASS1 Terpenoid
Class: CLASS2 Triterpenoid
Class: CLASS3 Ginsenoside
Formula: C42H72O14
Exact mass: 800.49 
Ion type: [M+Na]+
Precursor m/z: 823
m/z	relative intensity
365	100
