Mass spectrum: Valine-betaxanthin; MS2; QIT; [M+H]+; n.d.
Name: Valine-betaxanthin
Class: CLASS1 Amino acid
Class: CLASS2 Valine
Formula: C14H18N2O6
Exact mass: 310.12 
Ion type: [M+H]+
Precursor m/z: 311
m/z	relative intensity
311	100
267	100
