Mass spectrum: Capsanthin; MS2; QIT; [M+H]+; 1.0V
Name: Capsanthin
Class: CLASS1 Terpenoid
Class: CLASS2 Carotenoid
Class: CLASS3 Capsanthin
Formula: C40H56O3
Exact mass: 584.42 
Ion type: [M+H]+
Precursor m/z: 585
m/z	relative intensity
567	100
568	27
529	12
415	11
511	9
549	7
473	5
492	4
