Mass spectrum: (-)-N-[3',4'-Dihydroxy-(E)-cinnamoyl]-3-hydroxy-L-tyrosine; MS2; QIT; [M+H]+; n.d.
Name: (-)-N-[3',4'-Dihydroxy-(E)-cinnamoyl]-3-hydroxy-L-tyrosine
Name: N-caffeoyl-3-hydroxy-L-tyrosine
Class: CLASS1 Amino acid
Class: CLASS2 Tyrosine
Formula: C18H17N1O7
Exact mass: 359.10 
Ion type: [M+H]+
Precursor m/z: 360
m/z	relative intensity
719	100
360	45
163	25
