Mass spectrum: Symplocososide Sc4; MS2; LIT; [M-H]-; 40V
Name: Symplocososide Sc4
Class: CLASS1 Flavonoid
Class: CLASS2 Flavonol
Class: CLASS3 Symplocoside
Formula: C61H98O21
Exact mass: 1166.66 
Ion type: [M-H]-
Precursor m/z: 1165
m/z	relative intensity
835	100
761	100
639	100
489	100
195	100
167	100
