Mass spectrum: Chrysoeriol 6,8-di-C-hexoside; MS2; QIT; [M-H]-; 25->30%
Name: Chrysoeriol 6,8-di-C-hexoside
Class: CLASS1 Flavonoid
Class: CLASS2 Flavone
Class: CLASS3 Chrysoeriol glycoside
Formula: C28H32O16
Exact mass: 624.17 
Ion type: [M-H]-
Precursor m/z: 623
m/z	relative intensity
605	2
563	2
533	14
503	100
413	26
383	63
