Mass spectrum: Vanillic acid hexoside ; MS2; QIT; [M-H]-; n.d.
Name: Vanillic acid hexoside
Class: CLASS1 Other
Class: CLASS2 Benzoic acid
Class: CLASS3 Vanillin
Formula: C8H8O4
Exact mass: 168.04 
Ion type: [M-H]-
Precursor m/z: 167
m/z	relative intensity
152	100
123	67
108	33
