Mass spectrum: Hexosyl-bayogenin; MS2; QIT; [M-H]-; n.d.
Name: Hexosyl-bayogenin
Class: CLASS1 Terpenoid
Class: CLASS2 Triterpenoid
Class: CLASS3 Bayogenin glycoside
Formula: C36H58O10
Exact mass: 650.40 
Ion type: [M-H]-
Precursor m/z: 649.2
m/z	relative intensity
486.3	100
