Mass spectrum: Ginsenoside Rg1; MS2; QqQ; [M+H]+; n.d.
Name: Ginsenoside Rg1
Class: CLASS1 Terpenoid
Class: CLASS2 Triterpenoid
Class: CLASS3 Ginsenoside
Formula: C42H72O14
Exact mass: 800.49 
Ion type: [M+H]+
Precursor m/z: 801
m/z	relative intensity
621	100
603	100
441	100
423	100
325	100
343	100
163	100
181	100
