Mass spectrum: Ginsenoside Rg2; MS2; Q-TOF; [M+H]+; 6->10V
Name: Ginsenoside Rg2
Name: Prosapogenin C2
Class: CLASS1 Terpenoid
Class: CLASS2 Triterpenoid
Class: CLASS3 Ginsenoside
Formula: C42H72O13
Exact mass: 784.50 
Ion type: [M+H]+
Precursor m/z: 785.5024
m/z	relative intensity
639.4417	49
621.4434	100
477.3929	51
