Mass spectrum: Isovitexin-7-O-[6-feruloyl]-glucoside-4'-O-glucoside; MS2; QIT; [M-H]-; 0.3->2V
Name: Isovitexin-7-O-[6-feruloyl]-glucoside-4'-O-glucoside
Class: CLASS1 Flavonoid
Class: CLASS2 Flavone
Class: CLASS3 Apigenin glycoside
Formula: C43H48O23
Exact mass: 932.26 
Ion type: [M-H]-
Precursor m/z: 931
m/z	relative intensity
769	100
