Mass spectrum: Psoralen; MS2; QIT; [M+H]+; n.d.
Name: Psoralen
Class: CLASS1 Phenylpropanoid
Class: CLASS2 Coumarin
Class: CLASS3 Psoralen
Formula: C11H6O3
Exact mass: 186.03 
Ion type: [M+H]+
Precursor m/z: 187
m/z	relative intensity
114	5
229	8
300	5
391.2	100
503	5
581	5
