Mass spectrum: Vestitone; MS2; QIT; [M-H]-; 30->34%
Name: Vestitone
Class: CLASS1 Flavonoid
Class: CLASS2 Isoflavanone
Class: CLASS3 Vestitone
Formula: C16H14O5
Exact mass: 286.08 
Ion type: [M-H]-
Precursor m/z: 285
m/z	relative intensity
285	100
270	100
109	100
