Mass spectrum: OH-gossypetin-7-O-rhamnose-8-O-glucose; MS2; QqQ; [M+H]+; 15V
Name: OH-gossypetin-7-O-rhamnose-8-O-glucose
Class: CLASS1 Flavonoid
Class: CLASS2 Flavonol
Class: CLASS3 Gossypetin
Formula: C27H30O18
Exact mass: 642.14 
Ion type: [M+H]+
Precursor m/z: 643
m/z	relative intensity
643	15
497	5
481	100
335	95
