Mass spectrum: Ganolucidic acid D; MS2; QIT; [M-H]-; 30->50%
Name: Ganolucidic acid D
Class: CLASS1 Terpenoid
Class: CLASS2 Triterpenoid
Class: CLASS3 Ganolucidic acid
Formula: C30H44O6
Exact mass: 500.31 
Ion type: [M-H]-
Precursor m/z: 499
m/z	relative intensity
499	100
481	60
437	100
287	15
285	45
