Mass spectrum: (all-E)-Mutatoxanthin; MS2; QIT; [M+H]+; 20->10V
Name: (all-E)-Mutatoxanthin
Class: CLASS1 Terpenoid
Class: CLASS2 Carotenoid
Class: CLASS3 Mutatoxanthin
Formula: C40H56O3
Exact mass: 584.42 
Ion type: [M+H]+
Precursor m/z: 585
m/z	relative intensity
567	100
549	100
493	100
221	100
