Mass spectrum: S-adenosyl-L-methionine; MS2; QqQ; [M+H]+; 20
Name: S-adenosyl-L-methionine
Class: CLASS1 Amino acid
Class: CLASS2 Methionine
Formula: C15H22N6O5S1
Exact mass: 398.44 
Ion type: [M+H]+
Precursor m/z: 399
m/z	relative intensity
250	100
136	50
97	38
298	35
102	19
56	14
