Mass spectrum: Yunantaxusin A; MS2; QqQ; [M+H]+; 25V
Name: Yunantaxusin A
Class: CLASS1 Terpenoid
Class: CLASS2 Diterpenoid
Class: CLASS3 Yunantaxusin
Formula: C35H46O14
Exact mass: 690.29 
Ion type: [M+H]+
Precursor m/z: 691
m/z	relative intensity
105	32
207	25
235	93
355	60
391	71
415	100
417	82
433	22
473	65
519	32
533	22
551	17
595	12
655	12
673	5
