Mass spectrum: Acacetin-7-O-rutinoside; MS2; QqQ; [M-H]-; 35
Name: Acacetin-7-O-rutinoside
Class: CLASS1 Flavonoid
Class: CLASS2 Flavone
Class: CLASS3 Acacetin
Formula: C28H32O14
Exact mass: 592.18 
Ion type: [M-H]-
Precursor m/z: 591
m/z	relative intensity
283	100
268	100
