Mass spectrum: Dactylorhin B; MS2; QIT; [M+H]+; 35%
Name: Dactylorhin B
Class: CLASS1 Other
Class: CLASS2 Other
Class: CLASS3 Other
Formula: C40H56O23
Exact mass: 904.32 
Ion type: [M+H]+
Precursor m/z: 928
m/z	relative intensity
329	25
391	25
497	38
553	20
659	100
765	5
