Mass spectrum: Oxindolylalanine-Gly-OMe; MS2; QIT; [M+H]+; 35%
Name: Oxindolylalanine-Gly-OMe
Class: CLASS1 Alkaloid
Class: CLASS2 Indole
Class: CLASS3 Oxindolylalanine
Formula: C14H17N3O4
Exact mass: 291.12 
Ion type: [M+H]+
Precursor m/z: 292
m/z	relative intensity
274	100
175	1
