Mass spectrum: Kaempferol-7-O-neohesperidoside; MS2; QIT; [M+H]+; 35%
Name: Kaempferol-7-O-neohesperidoside
Class: CLASS1 Flavonoid
Class: CLASS2 Flavonol
Class: CLASS3 Kaempferol glycoside
Formula: C27H30O15
Exact mass: 594.16 
Ion type: [M+H]+
Precursor m/z: 595
m/z	relative intensity
577	1
559	1
541	1
449	60
433	6
431	1
329	1
287	100
