Mass spectrum: Resveratrol trimer; MS2; QIT; [M-H]-; 100%
Name: Resveratrol trimer
Class: CLASS1 Stilbenoid
Class: CLASS2 Resveratrol
Formula: C42H30O9
Exact mass: 678.19 
Ion type: [M-H]-
Precursor m/z: 679
m/z	relative intensity
585	100
447	28
491	11
385	2
479	1
465	1
567	1
