Mass spectrum: Isoscoparin-7-O-[6-feruloyl]-glucoside; MS2; QIT; [M-H]-; 0.3->2V
Name: Isoscoparin-7-O-[6-feruloyl]-glucoside
Class: CLASS1 Flavonoid
Class: CLASS2 Flavone
Class: CLASS3 Isoscoparin glycoside
Formula: C38H40O19
Exact mass: 800.22 
Ion type: [M-H]-
Precursor m/z: 799
m/z	relative intensity
475	1
461	100
371	5
341	21
