Mass spectrum: Ellagic acid; MS2; QIT; [M-H]-; 45%
Name: Ellagic acid
Name: Benzoaric acid
Class: CLASS1 Tannin
Class: CLASS2 Ellagitannin
Class: CLASS3 Ellagic acid
Formula: C14H6O8
Exact mass: 302.01 
Ion type: [M-H]-
Precursor m/z: 257.1
m/z	relative intensity
257.1	100
