Mass spectrum: Kaempferol 3-O-Glucuronide; MS2; QqQ; [M-H]-; 30V
Name: Kaempferol 3-O-Glucuronide
Class: CLASS1 Flavonoid
Class: CLASS2 Flavonol
Class: CLASS3 Kaempferol glycoside
Formula: C21H18O12
Exact mass: 462.08 
Ion type: [M-H]-
Precursor m/z: 461
m/z	relative intensity
285	100
