Mass spectrum: 10-OH-Mesaconitine; MS2; QIT; [M+H]+; 25->42%
Name: 10-OH-Mesaconitine
Class: CLASS1 Alkaloid
Class: CLASS2 Diterpene
Class: CLASS3 Mesaconitine
Formula: C33H45N1O12
Exact mass: 647.29 
Ion type: [M+H]+
Precursor m/z: 648
m/z	relative intensity
556	7
588	100
598	12
616	8
648	26
