Mass spectrum: Arabinosyl-glucosyl-arabinosyl-hederagenin; MS2; QIT; [M-H]-; n.d.
Name: Arabinosyl-glucosyl-arabinosyl-hederagenin
Class: CLASS1 Terpenoid
Class: CLASS2 Triterpenoid
Class: CLASS3 Hederagenin glycoside
Formula: C46H74O17
Exact mass: 898.49 
Ion type: [M-H]-
Precursor m/z: 897
m/z	relative intensity
764.9	78
746.9	60
603	100
585.4	30
471.4	10
