Mass spectrum: Coumaroylquinic acid; MS2; QIT; [M-H]-; n.d.
Name: Coumaroylquinic acid
Class: CLASS1 Phenylpropanoid
Class: CLASS2 Phenylpropanoid ester
Class: CLASS3 Quinic acid
Formula: C16H18O8
Exact mass: 338.10 
Ion type: [M-H]-
Precursor m/z: 337
m/z	relative intensity
173	100
111	13
