Mass spectrum: 10-Deacetyl-epi-paclitaxel; MS2; QqQ; [M+H]+; 25V
Name: 10-Deacetyl-epi-paclitaxel
Class: CLASS1 Terpenoid
Class: CLASS2 Diterpenoid
Class: CLASS3 Paclitaxel
Formula: C45H49N1O13
Exact mass: 811.32 
Ion type: [M+H]+
Precursor m/z: 812
m/z	relative intensity
105	2
122	3
286	100
527	4
