Mass spectrum: Amaroswerin; MS2; QqQ; [M+NH4]+; n.d.
Name: Amaroswerin
Class: CLASS1 Terpenoid
Class: CLASS2 Iridoid
Class: CLASS3 Amarogentin
Formula: C29H30O14
Exact mass: 602.16 
Ion type: [M+NH4]+
Precursor m/z: 620
m/z	relative intensity
391	100
