Mass spectrum: 2''-O-Pentosyl-C-hexosyl-quercetin; MS2; QIT; [M-H]-; 0.3->2V
Name: 2''-O-Pentosyl-C-hexosyl-quercetin
Class: CLASS1 Other
Class: CLASS2 Other
Class: CLASS3 Other
Formula: C27H32O15
Exact mass: 596.16 
Ion type: [M-H]-
Precursor m/z: 595
m/z	relative intensity
475	32
445	18
373	45
355	2
343	100
325	12
