Mass spectrum: (epi)Catechin-(epi)gallocatechin-(epi)catechin; MS2; QIT; [M+H]+; 20->25V
Name: (epi)Catechin-(epi)gallocatechin-(epi)catechin
Class: CLASS1 Tannin
Class: CLASS2 Proanthocyanidin
Formula: C45H40O19
Exact mass: 882.22 
Ion type: [M+H]+
Precursor m/z: 883
m/z	relative intensity
595	100
443	100
317	100
757	100
467	100
589	100
601	100
