Mass spectrum: 12,15-Bis(acetyloxy)-3-hydroxy-7,11,23-trioxolanost-8-en-26-oic acid; MS2; QIT; [M-H]-; 30->50%
Name: 12,15-Bis(acetyloxy)-3-hydroxy-7,11,23-trioxolanost-8-en-26-oic acid
Class: CLASS1 Other
Class: CLASS2 Other
Class: CLASS3 Other
Formula: C34H48O10
Exact mass: 616.32 
Ion type: [M-H]-
Precursor m/z: 615
m/z	relative intensity
597	100
553	100
511	21
