Mass spectrum: Eriodictyol; MS2; QIT; [M-H]-; 45%
Name: Eriodictyol
Name: Huazhongilexone
Class: CLASS1 Flavonoid
Class: CLASS2 Flavanone
Class: CLASS3 Eriodictyol
Formula: C15H12O6
Exact mass: 288.06 
Ion type: [M-H]-
Precursor m/z: 287
m/z	relative intensity
287	1
151	100
135	3
125	1
107	1
