Mass spectrum: Delphinidin 3-(6''-coumaroyl)glucoside; MS2; QIT; [M]+; 50%
Name: Delphinidin 3-(6''-coumaroyl)glucoside
Class: CLASS1 Flavonoid
Class: CLASS2 Anthocyanin
Class: CLASS3 Delphinidin glycoside
Formula: C30H27O14
Exact mass: 611.14 
Ion type: [M]+
Precursor m/z: 611
m/z	relative intensity
303	100
