Mass spectrum: L-Phenylalanine; MS2; QqQ; [M-H]-; -16
Name: L-Phenylalanine
Class: CLASS1 Amino acid
Class: CLASS2 Phenylalanine
Formula: C9H11N1O2
Exact mass: 165.08 
Ion type: [M-H]-
Precursor m/z: 164
m/z	relative intensity
147	100
103	59
72	40
