Mass spectrum: p-Coumaroyl-feruloylglycerol; MS2; QIT; [M-H]-; n.d.
Name: p-Coumaroyl-feruloylglycerol
Class: CLASS1 Phenylpropanoid
Class: CLASS2 Phenylpropanoid ester
Class: CLASS3 Glycerol
Formula: C22H22O8
Exact mass: 414.13 
Ion type: [M-H]-
Precursor m/z: 413
m/z	relative intensity
413	100
193	38
235	19
163	12
