Mass spectrum: Kutkoside; MS2; QqQ; [M+NH4]+; n.d.
Name: Kutkoside
Class: CLASS1 Other
Class: CLASS2 Other
Class: CLASS3 Kutkoside
Formula: C23H28O13
Exact mass: 512.15 
Ion type: [M+NH4]+
Precursor m/z: 530
m/z	relative intensity
183	100
