Mass spectrum: Genistein; MS2; QIT; [M-H]-; 45%
Name: Genistein
Class: CLASS1 Flavonoid
Class: CLASS2 Isoflavone
Class: CLASS3 Genistein
Formula: C15H10O5
Exact mass: 270.05 
Ion type: [M-H]-
Precursor m/z: 269
m/z	relative intensity
269	100
241	6
227	2
225	23
201	18
197	4
183	1
181	16
159	1
