Mass spectrum: Daidzein 7-O-beta-d-glucoside-6''-O-malonate; MS2; QIT; [M+H]+; 4.0V
Name: Daidzein 7-O-beta-d-glucoside-6''-O-malonate
Class: CLASS1 Flavonoid
Class: CLASS2 Isoflavone
Class: CLASS3 Daidzein glycoside
Formula: C24H12O12
Exact mass: 492.03 
Precursor m/z: 503
m/z	relative intensity
503	100
255	36
