Mass spectrum: Cyanidin 3-(6''-malonyl)glucoside; MS2; QIT; [M]+; n.d.
Name: Cyanidin 3-(6''-malonyl)glucoside
Class: CLASS1 Flavonoid
Class: CLASS2 Anthocyanin
Class: CLASS3 Cyanidin glycoside
Formula: C24H23O14
Exact mass: 535.11 
Ion type: [M]+
Precursor m/z: 535
m/z	relative intensity
449	100
287	100
