Mass spectrum: 2''-O-Glucosyl-6-C-glucosylapigenin; MS2; QIT; [M-H]-; 0.3->2V
Name: 2''-O-Glucosyl-6-C-glucosylapigenin
Class: CLASS1 Flavonoid
Class: CLASS2 Flavone
Class: CLASS3 Apigenin glycoside
Formula: C27H30O15
Exact mass: 594.16 
Ion type: [M-H]-
Precursor m/z: 593
m/z	relative intensity
503	2
473	6
413	100
341	6
323	5
311	2
293	86
