Mass spectrum: Piceatannol O-glucoside; MS2; QIT; [M-H]-; 100%
Name: Piceatannol O-glucoside
Class: CLASS1 Stilbenoid
Class: CLASS2 Resveratrol
Class: CLASS3 Resveratrol glycoside
Formula: C20H22O9
Exact mass: 406.13 
Ion type: [M-H]-
Precursor m/z: 405
m/z	relative intensity
243	100
375	2
225	1
345	1
215	1
199	1
149	1
173	1
