Mass spectrum: pyro-Glutamic acid; MS2; QqQ; [M+H]+; 18
Name: pyro-Glutamic acid
Class: CLASS1 Amino acid
Class: CLASS2 Glutamic acid
Formula: C5H7N1O3
Exact mass: 129.04 
Ion type: [M+H]+
Precursor m/z: 130
m/z	relative intensity
84	100
56	13
41	5
