Mass spectrum: Betanin; MS2; QIT; [M+H]+; 25->30%
Name: Betanin
Name: Phytolaccanin
Class: CLASS1 Alkaloid
Class: CLASS2 Betalain
Class: CLASS3 Betanin
Formula: C24H26N2O13
Exact mass: 550.14 
Ion type: [M+H]+
Precursor m/z: 551
m/z	relative intensity
389	100
