Mass spectrum: Tanshinone I; MS2; QIT; [M+H]+; 45%
Name: Tanshinone I
Class: CLASS1 Terpenoid
Class: CLASS2 Diterpenoid
Class: CLASS3 Tanshinone
Formula: C18H12O3
Exact mass: 276.08 
Ion type: [M+H]+
Precursor m/z: 277
m/z	relative intensity
277	4
259	3
249	100
231	12
221	4
207	1
