Mass spectrum: (all-E)-alpha-Carotene; MS2; QIT; [M+H]+; 20->10V
Name: (all-E)-alpha-Carotene
Class: CLASS1 Terpenoid
Class: CLASS2 Carotenoid
Class: CLASS3 Carotene
Formula: C40H56
Exact mass: 536.44 
Ion type: [M+H]+
Precursor m/z: 537
m/z	relative intensity
537	100
