Mass spectrum: Cryptotanshinone; MS2; QIT; [M+H]+; 45%
Name: Cryptotanshinone
Class: CLASS1 Terpenoid
Class: CLASS2 Diterpenoid
Class: CLASS3 Cryptotanshinone
Formula: C19H20O3
Exact mass: 296.14 
Ion type: [M+H]+
Precursor m/z: 297
m/z	relative intensity
282	11
280	12
279	100
269	4
268	20
255	5
254	28
251	75
237	10
