Mass spectrum: N-Sinapoyl-N'-(3,5-dimethoxy-4-hexosyloxycinnamoyl)spermidine; MS2; QIT; [M+H]+; 15->55V
Name: N-Sinapoyl-N'-(3,5-dimethoxy-4-hexosyloxycinnamoyl)spermidine
Class: CLASS1 Alkaloid
Class: CLASS2 Polyamine
Class: CLASS3 Spermidine
Formula: C35H50N3O13
Exact mass: 720.33 
Precursor m/z: 720.33
m/z	relative intensity
720.33	100
558.281	66
514.274	23
352.225	26
278.138	7
264.124	64
207.065	47
175.037	7
