Mass spectrum: Naringenin; MS2; QqQ; [M-H]-; 35V
Name: Naringenin
Class: CLASS1 Flavonoid
Class: CLASS2 Chalcone
Class: CLASS3 Naringenin
Formula: C15H12O5
Exact mass: 272.07 
Ion type: [M-H]-
Precursor m/z: 271
m/z	relative intensity
151	100
