Mass spectrum: Quercetin 3-O-rhamnose-7-O-glucose; MS2; QqQ; [M+H]+; 15V
Name: Quercetin 3-O-rhamnose-7-O-glucose
Class: CLASS1 Flavonoid
Class: CLASS2 Flavonol
Class: CLASS3 Quercetin glycoside
Formula: C27H30O16
Exact mass: 610.15 
Ion type: [M+H]+
Precursor m/z: 611
m/z	relative intensity
611	100
465	100
449	100
303	20
