Mass spectrum: Quercetin-3-O-pentose; MS2; QqQ; [M-H]-; 30V
Name: Quercetin-3-O-pentose
Class: CLASS1 Flavonoid
Class: CLASS2 Flavonol
Class: CLASS3 Quercetin glycoside
Formula: C20H18O11
Exact mass: 434.08 
Ion type: [M-H]-
Precursor m/z: 433
m/z	relative intensity
271	100
255	100
300	100
301	100
