Mass spectrum: Isorhamnetin O-dihexoside; MS2; QqQ; [M-H]-; 35V
Name: Isorhamnetin O-dihexoside
Class: CLASS1 Flavonoid
Class: CLASS2 Flavonol
Class: CLASS3 Isorhamnetin glycoside
Formula: C28H32O17
Exact mass: 640.16 
Ion type: [M-H]-
Precursor m/z: 639
m/z	relative intensity
477	100
315	100
300	100
