Mass spectrum: Hordenine; MS2; QqQ; [M+H]+; n.d.
Name: Hordenine
Class: CLASS1 Alkaloid
Class: CLASS2 Phenylethylamine
Class: CLASS3 Hordenine
Formula: C10H15N1O1
Exact mass: 165.12 
Ion type: [M+H]+
Precursor m/z: 166
m/z	relative intensity
121	100
103	100
91	100
77	100
