Mass spectrum: Gly-Trp; MS2; QIT; [M+H]+; 35%
Name: Gly-Trp
Class: CLASS1 Amino acid
Class: CLASS2 Peptide
Class: CLASS3 Oligo peptide
Formula: C13H15N3O3
Exact mass: 261.11 
Ion type: [M+H]+
Precursor m/z: 262
m/z	relative intensity
245	2
244	100
216	20
205	36
188	4
233	28
159	5
145	1
132	3
130	3
