Mass spectrum: Luteolin 7-O-(2-apiosyl-6-malonyl)glucoside; MS2; QIT; [M-H]-; 25->30%
Name: Luteolin 7-O-(2-apiosyl-6-malonyl)glucoside
Class: CLASS1 Flavonoid
Class: CLASS2 Flavone
Class: CLASS3 Luteolin glycoside
Formula: C29H30O18
Exact mass: 666.14 
Ion type: [M-H]-
Precursor m/z: 665
m/z	relative intensity
621	100
