Mass spectrum: Delphinidin 3-glucoside; MS2; QqQ; [M]+; 25V
Name: Delphinidin 3-glucoside
Class: CLASS1 Flavonoid
Class: CLASS2 Anthocyanin
Class: CLASS3 Delphinidin glycoside
Formula: C21H21O12
Exact mass: 465.10 
Ion type: [M]+
Precursor m/z: 465
m/z	relative intensity
303	100
