Mass spectrum: Ginsenoside malonyl-Rb1; MS2; QIT; [M-H]-; 30V
Name: Ginsenoside malonyl-Rb1
Class: CLASS1 Terpenoid
Class: CLASS2 Triterpenoid
Class: CLASS3 Ginsenoside
Formula: C57H94O26
Exact mass: 1194.60 
Ion type: [M-H]-
Precursor m/z: 1193
m/z	relative intensity
1107	98
1089	100
987	3
945	4
927	3
869	8
783	1
