Mass spectrum: L-Citrulline; MS2; QqQ; [M+H]+; 32
Name: L-Citrulline
Class: CLASS1 Amino acid
Class: CLASS2 Citrulline
Formula: C6H13N3O3
Exact mass: 175.10 
Ion type: [M+H]+
Precursor m/z: 176
m/z	relative intensity
159	100
113	57
70	100
115	13
