Mass spectrum: Chrysoeriol 6,8-di-C-glucoside; MS2; QIT; [M-H]-; 30->200%
Name: Chrysoeriol 6,8-di-C-glucoside
Name: Stellarin 2
Class: CLASS1 Flavonoid
Class: CLASS2 Flavone
Class: CLASS3 Chrysoeriol glycoside
Formula: C28H32O16
Exact mass: 624.17 
Ion type: [M-H]-
Precursor m/z: 624
m/z	relative intensity
533.2	100
503.2	100
413.2	100
383.3	100
