Mass spectrum: Nobotannin A-like ellagitannin; MS2; QIT; [M-H]-; 45%
Name: Nobotannin A-like ellagitannin
Class: CLASS1 Tannin
Class: CLASS2 Ellagitannin 
Class: CLASS3 Nobotannin
Formula: C75H52O48
Exact mass: 1720.16 
Ion type: [M-H]-
Precursor m/z: 1416.7
m/z	relative intensity
1416.7	100
1102.7	100
1084.9	100
782.9	100
