Mass spectrum: Ganolucidic acid B; MS2; QIT; [M-H]-; 30->50%
Name: Ganolucidic acid B
Class: CLASS1 Terpenoid
Class: CLASS2 Triterpenoid
Class: CLASS3 Ganolucidic acid
Formula: C30H46O6
Exact mass: 502.33 
Ion type: [M-H]-
Precursor m/z: 501
m/z	relative intensity
501	100
483	100
458	6
439	49
421	7
289	93
287	31
