Mass spectrum: L-Tryptophan; MS2; QqQ; [M+H]+; 18
Name: L-Tryptophan
Class: CLASS1 Amino acid
Class: CLASS2 Tryptophan
Formula: C11H12N2O2
Exact mass: 204.09 
Ion type: [M+H]+
Precursor m/z: 205
m/z	relative intensity
188	100
159	6
146	51
118	22
91	14
144	13
115	11
