Mass spectrum: Pentosyl-hederagenin; MS2; QIT; [M-H]-; n.d.
Name: Pentosyl-hederagenin
Class: CLASS1 Terpenoid
Class: CLASS2 Triterpenoid
Class: CLASS3 Hederagenin
Formula: C35H56O8
Exact mass: 604.40 
Ion type: [M-H]-
Precursor m/z: 603.5
m/z	relative intensity
470.4	100
