Mass spectrum: Resveratrol dimer O-glucoside; MS2; QIT; [M-H]-; 100%
Name: Resveratrol dimer O-glucoside
Class: CLASS1 Stilbenoid
Class: CLASS2 Resveratrol
Class: CLASS3 Resveratrol glycoside
Exact mass: no data
Ion type: [M-H]-
Precursor m/z: 615
m/z	relative intensity
453	100
359	3
585	2
347	1
389	1
567	1
