Mass spectrum: Zeaxanthin-palmitate; MS2; QIT; [M+H]+; 1.0V
Name: Zeaxanthin-palmitate
Class: CLASS1 Terpenoid
Class: CLASS2 Carotenoid
Class: CLASS3 Zeaxanthin
Formula: C56H86O3
Exact mass: 806.66 
Ion type: [M+H]+
Precursor m/z: 807
m/z	relative intensity
551	100
789	55
550	18
458	15
714	13
533	12
549	12
