Mass spectrum: Palmatine; MS2; QIT; [M]; 23%
Name: Palmatine
Class: CLASS1 Alkaloid
Class: CLASS2 Isoquinoline
Class: CLASS3 Palmatine
Formula: C21H22N1O4
Exact mass: 352.15 
Ion type: [M]
Precursor m/z: 352
m/z	relative intensity
352.1	18
337	100
308.1	10
