Mass spectrum: 5-Decinnamoyl-5,10-diacetylchinentaxunine; MS2; QqQ; [M+H]+; 25V
Name: 5-Decinnamoyl-5,10-diacetylchinentaxunine
Class: CLASS1 Terpenoid
Class: CLASS2 Diterpenoid
Class: CLASS3 Chinentaxunine
Exact mass: no data
Ion type: [M+H]+
Precursor m/z: 567
m/z	relative intensity
197	43
221	15
281	22
309	90
327	100
345	10
368	40
387	38
429	26
447	36
489	40
549	18
567	4
