Mass spectrum: Nicotinoylcholine; MS2; QIT; [M+H]+; 15
Name: Nicotinoylcholine
Class: CLASS1 Other
Class: CLASS2 Choline
Formula: C11H17N2O2
Exact mass: 209.13 
Ion type: [M+H]+
Precursor m/z: 209.131
m/z	relative intensity
209.131	100
150.055	70
