Mass spectrum: Berberine; MS2; QIT; [M]; 23%
Name: Berberine
Class: CLASS1 Alkaloid
Class: CLASS2 Isoquinoline
Class: CLASS3 Berberine
Formula: C20H18N1O4
Exact mass: 336.12 
Ion type: [M]
Precursor m/z: 336
m/z	relative intensity
336.1	20
321.1	100
292.1	10
