Mass spectrum: Ganoderic acid C6; MS2; QIT; [M-H]-; 30->50%
Name: Ganoderic acid C6
Class: CLASS1 Terpenoid
Class: CLASS2 Triterpenoid
Class: CLASS3 Ganoderic acid
Formula: C30H42O8
Exact mass: 530.29 
Ion type: [M-H]-
Precursor m/z: 529
m/z	relative intensity
511	100
481	9
467	100
438	6
