Mass spectrum: beta-Cryptoxanthin-laurate; MS2; QIT; [M+H]+; 1.0V
Name: beta-Cryptoxanthin-laurate
Class: CLASS1 Terpenoid
Class: CLASS2 Carotenoid
Class: CLASS3 Cryptoxanthin
Formula: C52H78O2
Exact mass: 734.60 
Ion type: [M+H]+
Precursor m/z: 735
m/z	relative intensity
535	100
642	16
534	11
442	7
533	6
321	6
