Mass spectrum: alpha-(Thioacetylamino)-2,3-dihydro-2-oxo-1H-indole-3-propionic acid methyl ester; MS2; QIT; [M+H]+; 35%
Name: alpha-(Thioacetylamino)-2,3-dihydro-2-oxo-1H-indole-3-propionic acid methyl ester
Class: CLASS1 Alkaloid
Class: CLASS2 Indole
Class: CLASS3 Indole
Formula: C14H16N2O3S1
Exact mass: 292.09 
Ion type: [M+H]+
Precursor m/z: 293
m/z	relative intensity
275	12
261	60
259	100
217	13
146	15
