Mass spectrum: Biochanin A; MS2; QIT; [M+H]+; 15->33%
Name: Biochanin A
Class: CLASS1 Flavonoid
Class: CLASS2 Isoflavone
Class: CLASS3 Biochanin
Formula: C16H12O5
Exact mass: 284.07 
Ion type: [M+H]+
Precursor m/z: 285.4
m/z	relative intensity
270.2	100
253.3	100
229.2	100
179.2	100
152.1	100
123.1	100
