Mass spectrum: Luteolin 7-O-(2-apiosyl-6-acetyl)glucoside; MS2; QIT; [M-H]-; 25->30%
Name: Luteolin 7-O-(2-apiosyl-6-acetyl)glucoside
Class: CLASS1 Flavonoid
Class: CLASS2 Flavone
Class: CLASS3 Luteolin glycoside
Formula: C28H30O16
Exact mass: 622.15 
Ion type: [M-H]-
Precursor m/z: 621
m/z	relative intensity
579	86
561	100
489	19
447	7
285	39
