Mass spectrum: Ginsenoside Rf; MS2; QqQ; [M+H]+; n.d.
Name: Ginsenoside Rf
Class: CLASS1 Terpenoid
Class: CLASS2 Triterpenoid
Class: CLASS3 Ginsenoside
Formula: C42H72O14
Exact mass: 800.49 
Ion type: [M+H]+
Precursor m/z: 801
m/z	relative intensity
441	100
423	100
325	100
163	100
