Mass spectrum: Delphinidin 3-rutinoside-5-Galactoside; MS2; QIT; [M]+; n.d.
Name: Delphinidin 3-rutinoside-5-Galactoside
Class: CLASS1 Flavonoid
Class: CLASS2 Anthocyanin
Class: CLASS3 Delphinidin glycoside
Formula: C27H31O16Cl1
Exact mass: 611.16 
Ion type: [M]+
Precursor m/z: 611
m/z	relative intensity
465	100
303	100
