Mass spectrum: Baccatin III; MS2; QqQ; [M+H]+; 25V
Name: Baccatin III
Class: CLASS1 Terpenoid
Class: CLASS2 Diterpenoid
Class: CLASS3 Baccatin
Formula: C31H38O11
Exact mass: 586.24 
Ion type: [M+H]+
Precursor m/z: 587
m/z	relative intensity
105	100
133	35
177	65
287	25
327	55
345	62
387	28
405	35
449	21
509	28
527	25
587	17
