Mass spectrum: Cyanidin 3-xyloside; MS2; QIT; [M]+; 50%
Name: Cyanidin 3-xyloside
Class: CLASS1 Flavonoid
Class: CLASS2 Anthocyanin
Class: CLASS3 Cyanidin glycoside
Formula: C20H19O10
Exact mass: 419.10 
Ion type: [M]+
Precursor m/z: 419
m/z	relative intensity
287	100
