Mass spectrum: 3-Benzoyloxypropylglucosinolate; MS2; QIT; [M+H]+; 25
Name: 3-Benzoyloxypropylglucosinolate
Class: CLASS1 Glucosinolate
Class: CLASS2 Benzyl glucosinolate
Formula: C17H23N1O11S2
Exact mass: 481.07 
Ion type: [M+H]+
Precursor m/z: 402
m/z	relative intensity
240.066	3
145.048	3
127.038	2
118.032	100
105.034	1
85.03	4
