Mass spectrum: Ginsenoside Rd; MS2; QIT; [M-H]-; 30V
Name: Ginsenoside Rd
Class: CLASS1 Terpenoid
Class: CLASS2 Triterpenoid
Class: CLASS3 Ginsenoside
Formula: C48H82O18
Exact mass: 946.55 
Ion type: [M-H]-
Precursor m/z: 945
m/z	relative intensity
783	100
621	25
459	10
