Mass spectrum: Eriodictyol-7-O-rutinoside; MS2; QqQ; [M-H]-; 35V
Name: Eriodictyol-7-O-rutinoside
Name: eriocitrin
Class: CLASS1 Flavonoid
Class: CLASS2 Flavanone
Class: CLASS3 Eriodictyol glycoside
Formula: C27H32O15
Exact mass: 596.17 
Ion type: [M-H]-
Precursor m/z: 595
m/z	relative intensity
459	100
287	100
151	100
135	100
