Mass spectrum: 6,8-C-Dihexosylapigenin; MS2; QqQ; [M-H]-; 35
Name: 6,8-C-Dihexosylapigenin
Class: CLASS1 Flavonoid
Class: CLASS2 Flavone
Class: CLASS3 Apigenin glycoside
Formula: C27H30O15
Exact mass: 594.16 
Ion type: [M-H]-
Precursor m/z: 593
m/z	relative intensity
593	100
575	2
503	5
473	18
383	3
353	6
