Mass spectrum: Bearline; MS2; QIT; [M+H]+; 10->30%
Name: Bearline
Class: CLASS1 Alkaloid
Class: CLASS2 Diterpene
Class: CLASS3 Bearline
Formula: C37H48N2O11
Exact mass: 696.33 
Ion type: [M+H]+
Precursor m/z: 697
m/z	relative intensity
697	1
679	4
665	31
637	100
633	5
619	3
605	12
573	9
555	1
340	2
