Mass spectrum: Catechin-(4alpha->6)-gallocatechin; MS2; QqQ; [M+H]+; n.d.
Name: Catechin-(4alpha->6)-gallocatechin
Class: CLASS1 Tannin
Class: CLASS2 Proanthocyanidin
Formula: C30H26O13
Exact mass: 594.14 
Ion type: [M+H]+
Precursor m/z: 595
m/z	relative intensity
427	43
409	41
307	65
289	70
247	100
