Mass spectrum: (-)-N-[3',4'-Dihydroxy-(E)-cinnamoyl]-L-tyrosine; MS2; QIT; [M+H]+; n.d.
Name: (-)-N-[3',4'-Dihydroxy-(E)-cinnamoyl]-L-tyrosine
Name: N-caffeoyl-L-tyrosine
Class: CLASS1 Amino acid
Class: CLASS2 Tyrosine
Formula: C18H17N1O6
Exact mass: 343.11 
Ion type: [M+H]+
Precursor m/z: 344
m/z	relative intensity
687	100
344	27
163	10
