Mass spectrum: Prelupulone/Adprelupulone; MS2; QIT; [M-H]-; 30V
Name: Prelupulone/Adprelupulone
Class: CLASS1 Other
Class: CLASS2 Phenol
Class: CLASS3 Phloroglucinol
Formula: C27H40O4
Exact mass: 428.29 
Ion type: [M-H]-
Precursor m/z: 427
m/z	relative intensity
315	100
358	23
333	17
247	12
303	19
290	10
383	4
