Mass spectrum: Pelargonidin 3-(p-coumaroyl)diglucoside-5-glucoside; MS2; QIT; [M]+; 50%
Name: Pelargonidin 3-(p-coumaroyl)diglucoside-5-glucoside
Class: CLASS1 Flavonoid
Class: CLASS2 Anthocyanin
Class: CLASS3 Pelargonidin glycoside
Formula: C42H47O22
Exact mass: 903.26 
Ion type: [M]+
Precursor m/z: 903
m/z	relative intensity
741	100
433	100
271	100
