Mass spectrum: 2-Deoxy-2'b-hydroxyecdysone; MS2; QIT; [M+H]+; 25V
Name: 2-Deoxy-2'b-hydroxyecdysone
Class: CLASS1 Terpenoid
Class: CLASS2 Triterpenoid
Class: CLASS3 Ecdysone
Formula: C27H44O6
Exact mass: 464.31 
Ion type: [M+H]+
Precursor m/z: 447
m/z	relative intensity
429	42
411	100
393	62
375	1
355	2
337	2
313	9
287	14
285	63
267	2
