Mass spectrum: Protopine; MS2; QIT; [M+H]+; 20->40V
Name: Protopine
Class: CLASS1 Alkaloid
Class: CLASS2 Polyamine
Class: CLASS3 Protopine
Formula: C20H19N1O5
Exact mass: 353.13 
Ion type: [M+H]+
Precursor m/z: 354
m/z	relative intensity
354	100
336	8
275	19
247	9
206	22
189	70
188	65
165	11
149	31
