Mass spectrum: Sesquiterpenoid hexose; MS2; Q-TOF; [M-H]-; 20V
Name: Sesquiterpenoid hexose
Class: CLASS1 Terpenoid
Class: CLASS2 Sesquiterpenoid
Class: CLASS3 Other
Formula: C21H38O8
Exact mass: 418.26 
Ion type: [M-H]-
Precursor m/z: 418.2567
m/z	relative intensity
417.2497	100
463.2552	100
255.213	100
161.0502	100
101.10249	100
