Mass spectrum: Hydroxy matairesinol; MS2; in source CID; [M-H]-; 40V
Name: Hydroxy matairesinol
Name: 5-Hydroxymatairesinol
Class: CLASS1 Phenylpropanoid
Class: CLASS2 Lignan
Class: CLASS3 Matairesinol
Formula: C20H22O7
Exact mass: 374.14 
Ion type: [M-H]-
Precursor m/z: 374
m/z	relative intensity
747	100
373	100
355	100
