Mass spectrum: Quercetin 3-O-rutinoside; MS2; QIT; [M-H]-; n.d.
Name: Quercetin 3-O-rutinoside
Name: Rutin
Class: CLASS1 Flavonoid
Class: CLASS2 Flavonol
Class: CLASS3 Quercetin glycoside
Formula: C27H30O16
Exact mass: 610.15 
Ion type: [M-H]-
Precursor m/z: 609
m/z	relative intensity
300	100
