Mass spectrum: Skimmianine; MS2; QIT; [M+H]+; 35%
Name: Skimmianine
Class: CLASS1 Alkaloid
Class: CLASS2 Quinoline
Class: CLASS3 Skimmianine
Formula: C14H13N1O4
Exact mass: 259.08 
Ion type: [M+H]+
Precursor m/z: 260
m/z	relative intensity
260	100
245	100
