Mass spectrum: Hexagalloyl glucose; MS2; Q-TOF; [M-H]-; 20->80V
Name: Hexagalloyl glucose
Class: CLASS1 Tannin
Class: CLASS2 Gallotannin
Class: CLASS3 Galloyl glycoside
Formula: C48H36O30
Exact mass: 1092.13 
Ion type: [M-H]-
Precursor m/z: 1091
m/z	relative intensity
939	100
769	100
617	100
447	100
321	100
295	100
169	100
