Mass spectrum: 2-Propenyl glucosinolate; MS2; QIT; [M-H]-; 0.8V
Name: 2-Propenyl glucosinolate
Name: Sinigrin
Class: CLASS1 Glucosinolate
Class: CLASS2 Aliphatic glucosinolate
Formula: C10H17N1O9S2K1
Exact mass: 359.03 
Ion type: [M-H]-
Precursor m/z: 358
m/z	relative intensity
278	4
275	8
260	4
259	68
241	23
195	3
180	5
163	2
162	18
116	9
97	100
96	3
