Mass spectrum: 17-Decarboxy-isophyllocactin; MS2; QIT; [M+H]+; 25->30%
Name: 17-Decarboxy-isophyllocactin
Class: CLASS1 Alkaloid
Class: CLASS2 Betalain
Class: CLASS3 Isophyllocactin
Exact mass: no data
Ion type: [M+H]+
Precursor m/z: 593
m/z	relative intensity
593	100
549	13
505	10
345	100
