Mass spectrum: 2-(beta-D-Glucopyranosyloxy)-3-(phenylthio)-propanoic acid; MS2; QIT; [MH]+; 45%
Name: 2-(beta-D-Glucopyranosyloxy)-3-(phenylthio)-propanoic acid
Class: CLASS1 Other
Class: CLASS2 Other
Class: CLASS3 Other
Formula: C15H20O8S1
Exact mass: 360.09 
Ion type: [MH]+
Precursor m/z: 375
m/z	relative intensity
375	4
213	100
195	55
153	13
135	4
109	6
