Mass spectrum: Pinoresinol; MS2; QqQ; [M]+; 70V
Name: Pinoresinol
Class: CLASS1 Phenylpropanoid
Class: CLASS2 Lignan
Class: CLASS3 Pinoresinol glycoside
Formula: C20H22O6
Exact mass: 358.14 
Ion type: [M]+
Precursor m/z: 358
m/z	relative intensity
358	66
327	6
205	17
163	33
152	34
151	100
137	49
124	13
