Mass spectrum: Epigallocatechol 3-gallate-4''-O-b-D-glucupyranoside; MS2; QIT; [M-H]-; 35V
Name: Epigallocatechol 3-gallate-4''-O-b-D-glucupyranoside
Class: CLASS1 Tannin
Class: CLASS2 Proanthocyanidin
Exact mass: no data
Ion type: [M-H]-
Precursor m/z: 633
m/z	relative intensity
457.07	100
345.03	60
305.11	6
