Mass spectrum: 3-p-Coumaroyl-4-caffeoylquinic acids; MS2; QqQ; [M+H]+; 30eV
Name: 3-p-Coumaroyl-4-caffeoylquinic acids
Name: Cyclohexanecarboxylic acid, 4-[[3-(3,4-dihydroxyphenyl)-1-oxo-2-propen-1-yl]oxy]-1,3-dihydroxy-5-[[3-(4-hydroxyphenyl)-1-oxo-2-propen-1-yl]oxy]-, (1S,3R,4R,5R)-
Class: CLASS1 Phenylpropanoid
Class: CLASS2 Phenylpropanoid ester
Class: CLASS3 Quinic acid
Formula: C25H24N0O11
Exact mass: 500.13 
Ion type: [M+H]+
Precursor m/z: 500.6
m/z	relative intensity
162.9	38
146.8	100
