Mass spectrum: Gallic acid; MS2; Q-TOF; [M-H]-; 20->80V
Name: Gallic acid
Class: CLASS1 Phenylpropanoid
Class: CLASS2 Phenylpropanoid monomer
Class: CLASS3 Gallic acid
Formula: C7H6O5
Exact mass: 170.02 
Ion type: [M-H]-
Precursor m/z: 169
m/z	relative intensity
125	100
97	100
81	100
69	100
