Mass spectrum: Trimethoxyl quercetin-Oferuloyl rhamnoside; MS2; QIT; [M-H]-; 45%
Name: Trimethoxyl quercetin-Oferuloyl rhamnoside
Class: CLASS1 Flavonoid
Class: CLASS2 Flavonol
Class: CLASS3 Quercetin glycoside
Exact mass: no data
Ion type: [M-H]-
Precursor m/z: 665
m/z	relative intensity
665	100
488	2
343	100
313	34
255	5
