Mass spectrum: Hydroxytyrosol glucoside; MS2; QIT; [M-H]-; n.d.
Name: Hydroxytyrosol glucoside
Class: CLASS1 Other
Class: CLASS2 Phenol
Class: CLASS3 Other
Exact mass: no data
Ion type: [M-H]-
Precursor m/z: 315
m/z	relative intensity
153	100
123	100
