Mass spectrum: Spermidine-p-coumaroyl-feruloyl; MS2; Q-TOF; [M+H]+; 15->55V
Name: Spermidine-p-coumaroyl-feruloyl
Class: CLASS1 Alkaloid
Class: CLASS2 Polyamine
Class: CLASS3 Spermidine
Exact mass: 0
Ion type: [M+H]+
Precursor m/z: 469.2404
m/z	relative intensity
469.2404	9
468.2415	100
451.2126	12
322.2108	8
292.1973	16
275.1674	3
234.1089	21
218.115	6
204.0986	10
177.0505	39
149.0567	3
147.0395	32
145.0247	30
119.0454	6
117.0303	11
112.1086	3
89.0367	3
