Mass spectrum: Cyclo(Phe-Ile); MS2; QIT; [M+H]+; 35%
Name: Cyclo(Phe-Ile)
Class: CLASS1 Amino acid
Class: CLASS2 Peptide
Class: CLASS3 Cyclopeptide
Formula: C15H20N2O2
Exact mass: 260.15 
Ion type: [M+H]+
Precursor m/z: 261
m/z	relative intensity
261	78
233	58
216	20
188	50
170	2
120	100
114	4
86	36
69	4
