Mass spectrum: Hydroxy feruloyl glycoside; MS2; QIT; [M-H]-; 40V
Name: Hydroxy feruloyl glycoside
Class: CLASS1 Phenylpropanoid
Class: CLASS2 Phenylpropanoid glycoside
Class: CLASS3 Feruloyl glycoside
Formula: C16H20O10
Exact mass: 372.11 
Ion type: [M-H]-
Precursor m/z: 371
m/z	relative intensity
232	15
209	100
191	58
