Mass spectrum: Germinalinine; MS2; QIT; [M+H]+; 0.6V
Name: Germinalinine
Class: CLASS1 Alkaloid
Class: CLASS2 Steroid
Class: CLASS3 Germanidin
Formula: C39H61N1O13
Exact mass: 751.41 
Ion type: [M+H]+
Precursor m/z: 752.6
m/z	relative intensity
734.5	100
600.4	100
540.4	100
438.3	100
420.3	100
