Mass spectrum: Laurifoline; MS2; QIT; [M+H]+; 25V
Name: Laurifoline
Class: CLASS1 Alkaloid
Class: CLASS2 Diterpene
Class: CLASS3 Laurifoline
Formula: C20H24N1O4
Exact mass: 342.17 
Ion type: [M+H]+
Precursor m/z: 342
m/z	relative intensity
297	100
265	22
