Mass spectrum: Gluconasturtiin; MS2; QIT; [M-H]-; 30->35%
Name: Gluconasturtiin
Class: CLASS1 Glucosinolate
Class: CLASS2 Aliphatic glucosinolate
Formula: C15H21N1O9S2
Exact mass: 423.07 
Ion type: [M-H]-
Precursor m/z: 422
m/z	relative intensity
422	100
342	100
275	100
259	100
195	100
