Mass spectrum: Quercetin 3,7,4'-triglucoside; MS2; QIT; [M-H]-; 40%
Name: Quercetin 3,7,4'-triglucoside
Class: CLASS1 Flavonoid
Class: CLASS2 Flavonol
Class: CLASS3 Quercetin glycoside
Exact mass: no data
Ion type: [M-H]-
Precursor m/z: 786.9
m/z	relative intensity
625	100
463.1	16
