Mass spectrum: Adhyperfirin; MS2; QIT; [M-H]-; 35%
Name: Adhyperfirin
Class: CLASS1 Other
Class: CLASS2 Phenol
Class: CLASS3 Phloroglucinol
Formula: C31H46O4
Exact mass: 482.34 
Ion type: [M-H]-
Precursor m/z: 481.4
m/z	relative intensity
412.2	100
