Mass spectrum: Type-A vitisin of peonidin-3-O-glucoside; MS2; QqQ; [M]+; n.d.
Name: Type-A vitisin of peonidin-3-O-glucoside
Class: CLASS1 Other
Class: CLASS2 Other
Class: CLASS3 Other
Formula: C25H23O13
Exact mass: 531.11 
Ion type: [M]+
Precursor m/z: 531
m/z	relative intensity
531	50
369	100
353	100
