Mass spectrum: Trimer proanthocyanin monogallate; MS2; QqQ; [M-H]-; n.d.
Name: Trimer proanthocyanin monogallate
Class: CLASS1 Tannin
Class: CLASS2 Proanthocyanidin
Formula: C52H41O22
Exact mass: 1017.21 
Ion type: [M-H]-
Precursor m/z: 1017
m/z	relative intensity
1017	50
865	100
729	100
591	100
