Mass spectrum: 5-Methylthio-n-pentyl glucosinolate; MS2; Q-TOF; [M-H]-; 15->55V
Name: 5-Methylthio-n-pentyl glucosinolate
Name: glucoberteroin
Class: CLASS1 Glucosinolate
Class: CLASS2 Aliphatic glucosinolate
Formula: C13H25N1O9S3
Exact mass: 435.0691444
Ion type: [M-H]-
Precursor m/z: 434.0617
m/z	relative intensity
434.0617	100
96.9603	31
95.9523	19
74.9915	8
