Mass spectrum: Hydroxytyrosol; MS2; QIT; [M-H]-; n.d.
Name: Hydroxytyrosol
Name: 3,4-Dihydroxyphenylethanol
Class: CLASS1 Other
Class: CLASS2 Phenol
Class: CLASS3 Other
Formula: C8H10O3
Exact mass: 154.06 
Ion type: [M-H]-
Precursor m/z: 153
m/z	relative intensity
123	100
