Mass spectrum: Mysomine; MS2; QIT; [M+H]+; 25%
Name: Mysomine
Class: CLASS1 Alkaloid
Class: CLASS2 Nicotine
Class: CLASS3 Mysomine
Formula: C9H10O2
Exact mass: 150.07 
Ion type: [M+H]+
Precursor m/z: 147
m/z	relative intensity
147	100
130	100
