Mass spectrum: Matairesinoside; MS2; QIT; [M-H]-; 45%
Name: Matairesinoside
Class: CLASS1 Phenylpropanoid
Class: CLASS2 Lignan
Class: CLASS3 Matairesinoside
Formula: C26H32O11
Exact mass: 520.19 
Ion type: [M-H]-
Precursor m/z: 519
m/z	relative intensity
519	100
357	100
