Mass spectrum: Quercetin-3-O-a-L-rhamnosyl(1,2)-b-D-glucoside-7-O-a-L-rhamnoside; MS2; Q-TOF; [M+H]+; 15->55V
Name: Quercetin-3-O-a-L-rhamnosyl(1,2)-b-D-glucoside-7-O-a-L-rhamnoside
Class: CLASS1 Flavonoid
Class: CLASS2 Flavonol
Class: CLASS3 Quercetin glycoside
Formula: C33H40O20
Exact mass: 756.2112937
Ion type: [M+H]+
Precursor m/z: 757.2233
m/z	relative intensity
757.2233	31
595.1825	6
433.12	72
303.0532	7
287.055	100
145.0531	6
85.0266	7
