Mass spectrum: Tamarixetin 3-O-D-glucopyranosyl-(1,3)-O-D-xylopyranosyl-3'-O-D-glucopyranoside; MS2; QIT; [M-H]-; 60V
Name: Tamarixetin 3-O-D-glucopyranosyl-(1,3)-O-D-xylopyranosyl-3'-O-D-glucopyranoside
Class: CLASS1 Other
Class: CLASS2 Other
Class: CLASS3 Other
Exact mass: no data
Ion type: [M-H]-
Precursor m/z: 771
m/z	relative intensity
625	100
609	100
463	100
300	100
