Mass spectrum: Chlorophyll b'; MS2; QIT; [M-H]-; 43.2->8V
Name: Chlorophyll b'
Class: CLASS1 Other
Class: CLASS2 Chlorophyll
Formula: C55H70N4O6
Exact mass: 882.53 
Ion type: [M-H]-
Precursor m/z: 965
m/z	relative intensity
965	100
