Mass spectrum: Pelargonodin 3-sophoroside-5-glucoside ferulic; MS2; QqQ; [M]+; 15->30V
Name: Pelargonodin 3-sophoroside-5-glucoside ferulic
Class: CLASS1 Flavonoid
Class: CLASS2 Anthocyanin
Class: CLASS3 Pelargonidin glycoside
Formula: C46H51O26Cl1
Exact mass: 1019.27 
Ion type: [M]+
Precursor m/z: 1019.2
m/z	relative intensity
771.2	100
518.8	100
271.2	100
