Mass spectrum: Ginsenoside Ra3, tentative; MS2; QIT; [M-H]-; 50%
Name: Ginsenoside Ra3, tentative
Name: Notoginsenoside R4
Class: CLASS1 Terpenoid
Class: CLASS2 Triterpenoid
Class: CLASS3 Ginsenoside
Formula: C59H100O27
Exact mass: 1240.65 
Ion type: [M-H]-
Precursor m/z: 1241
m/z	relative intensity
1240.6	100
1108.4	63
1078.2	88
945.8	25
928.3	50
784	100
