Mass spectrum: Gancaonin A; MS2; QIT; [M-H]-; 48%
Name: Gancaonin A
Class: CLASS1 Flavonoid
Class: CLASS2 Flavone
Class: CLASS3 Gancaonin
Formula: C21H20O5
Exact mass: 352.13 
Ion type: [M-H]-
Precursor m/z: 351
m/z	relative intensity
351	29
336	100
296	24
