Mass spectrum: Quercetin 3,4'-diglucoside; MS2; QIT; [M-H]-; 35%
Name: Quercetin 3,4'-diglucoside
Class: CLASS1 Flavonoid
Class: CLASS2 Flavonol
Class: CLASS3 Quercetin glycoside
Exact mass: no data
Ion type: [M-H]-
Precursor m/z: 625
m/z	relative intensity
463	100
301	100
