Mass spectrum: Senkirkine; MS2; QqQ; [M+H]+; 41V
Name: Senkirkine
Class: CLASS1 Alkaloid
Class: CLASS2 Pyrrolizidine
Class: CLASS3 Senkirkine
Formula: C19H28N1O6
Exact mass: 366.19 
Ion type: [M+H]+
Precursor m/z: 366
m/z	relative intensity
366	100
150	100
168	100
