Mass spectrum: Heptyl glucosinolate, putative; MS2; Q-TOF; [M-H]-; 15->55V
Name: Heptyl glucosinolate, putative
Class: CLASS1 Glucosinolate
Class: CLASS2 Aliphatic glucosinolate
Exact mass: 0
Ion type: [M-H]-
Precursor m/z: 418.2134
m/z	relative intensity
418.2134	4
416.1048	100
223.0357	3
132.5732	3
96.9624	37
95.9541	16
79.9588	5
76.6722	3
75.3597	3
74.9923	15
73.7881	3
72.8086	4
68.4215	3
57.9071	4
53.155	3
