Mass spectrum: Sinapoylmalate; MS2; Q-TOF; [M+H]+; 15->55V
Name: Sinapoylmalate
Class: CLASS1 Phenylpropanoid
Class: CLASS2 Phenylpropanoid ester
Class: CLASS3 Sinapoyl malate
Formula: C15H16O9
Exact mass: 340.0794321
Ion type: [M+H]+
Precursor m/z: 207.1367
m/z	relative intensity
207.1367	34
207.068	88
189.1328	13
175.0392	100
174.0295	9
165.1261	11
161.1311	8
151.0746	11
149.0938	21
149.0186	16
147.115	13
147.0411	52
129.0358	13
123.0797	31
121.102	16
119.0824	18
119.0467	75
107.0816	14
105.0679	8
95.0821	75
91.0497	75
90.0398	9
89.0554	13
89.0312	11
77.0255	8
67.0469	34
65.0268	13
