Mass spectrum: Pentagalloylquinic acid; MS2; QIT; [M-H]-; 15V
Name: Pentagalloylquinic acid
Class: CLASS1 Other
Class: CLASS2 Other
Class: CLASS3 Other
Exact mass: no data
Ion type: [M-H]-
Precursor m/z: 951
m/z	relative intensity
799	100
647	5
