Mass spectrum: Apigenin 7-O-Glucoside; MS2; QqQ; [M-H]-; 50V
Name: Apigenin 7-O-Glucoside
Class: CLASS1 Flavonoid
Class: CLASS2 Flavone
Class: CLASS3 Apigenin glycoside
Formula: C21H20O10
Exact mass: 432.11 
Ion type: [M-H]-
Precursor m/z: 431
m/z	relative intensity
431	100
269	100
