Mass spectrum: Tanshinone IIA; MS2; QIT; [M+H]+; 40%
Name: Tanshinone IIA
Name: Phenanthro[1,2-b]furan-10,11-dione, 6,7,8,9-tetrahydro-1,6,6-trimethyl-
Class: CLASS1 Terpenoid
Class: CLASS2 Diterpenoid
Class: CLASS3 tanshinone
Formula: C19H18O3
Exact mass: 294.13 
Ion type: [M+H]+
Precursor m/z: 295
m/z	relative intensity
277	100
267	4
253	4
249	16
