Mass spectrum: Morin; MS2; QIT; [M+H]+; 20->60%
Name: Morin
Name: 4H-1-Benzopyran-4-one, 2-(2,4-dihydroxyphenyl)-3,5,7-trihydroxy-
Class: CLASS1 Flavonoid
Class: CLASS2 Flavonol
Class: CLASS3 Morin
Formula: C15H10O7
Exact mass: 302.04 
Ion type: [M+H]+
Precursor m/z: 303
m/z	relative intensity
303	100
285	4
275	7
257	1
247	2
229	1
261	1
245	1
163	1
165	1
137	1
139	1
153	8
149	2
111	1
127	1
109	5
195	10
177	18
