Mass spectrum: 6-Methylsulfinyl-n-hexyl glucosinolate; MS2; Q-TOF; [M-H]-; 15->55V
Name: 6-Methylsulfinyl-n-hexyl glucosinolate
Name: glucohesperin
Class: CLASS1 Glucosinolate
Class: CLASS2 Aliphatic glucosinolate
Formula: C14H27N1O10S3
Exact mass: 465.0797091
Ion type: [M-H]-
Precursor m/z: 464.0703
m/z	relative intensity
464.0703	100
449.0444	3
400.075	22
96.9592	51
95.9514	31
79.9577	8
74.9922	13
