Mass spectrum: Clematichinenoside B; MS2; QIT; [M-H]-; 35%
Name: Clematichinenoside B
Class: CLASS1 Terpenoid
Class: CLASS2 Triterpenoid
Class: CLASS3 Clematichinenoside
Formula: C70H114O35
Exact mass: 1514.71 
Ion type: [M-H]-
Precursor m/z: 1513
m/z	relative intensity
1205	1
1043	100
