Mass spectrum: Isorhamnetin; MS2; QIT; [M+H]+; 20->60%
Name: Isorhamnetin
Name: 4H-1-Benzopyran-4-one, 3,5,7-trihydroxy-2-(4-hydroxy-3-methoxyphenyl)-
Class: CLASS1 Flavonoid
Class: CLASS2 Flavonol
Class: CLASS3 Isorhamnetin
Formula: C16H12O7
Exact mass: 316.06 
Ion type: [M+H]+
Precursor m/z: 317
m/z	relative intensity
317	14
302	100
299	5
288	1
289	1
285	42
281	1
274	3
271	6
261	9
243	3
275	1
233	1
201	1
177	1
165	6
137	1
153	2
153	2
163	2
111	1
109	1
191	1
