Mass spectrum: Hoodigoside P; MS2; QIT; [M+Na]+; 30->45%
Name: Hoodigoside P
Class: CLASS1 Terpenoid
Class: CLASS2 Triterpenoid
Class: CLASS3 Hoodigoside
Formula: C58H94O25
Exact mass: 1190.61 
Ion type: [M+Na]+
Precursor m/z: 1213.6013
m/z	relative intensity
479	100
461	100
299	100
281	100
