Mass spectrum: Taxayuntin F; MS2; in source CID; [M-H]-; 40V
Name: Taxayuntin F
Class: CLASS1 Terpenoid
Class: CLASS2 Diterpenoid
Class: CLASS3 Taxayuntin
Formula: C33H42O12
Exact mass: 630.27 
Ion type: [M-H]-
Precursor m/z: 630
m/z	relative intensity
675	100
629	100
121	100
