Mass spectrum: Schisandrin B; MS2; QIT; [M+H]+; 30->55%
Name: Schisandrin B
Name: Benzo[3,4]cycloocta[1,2-f][1,3]benzodioxole, 5,6,7,8-tetrahydro-1,2,3,13-tetramethoxy-6,7-dimethyl-, stereoisomer
Class: CLASS1 Phenylpropanoid
Class: CLASS2 Lignan
Formula: C23H28O6
Exact mass: 400.19 
Ion type: [M+H]+
Precursor m/z: 401
m/z	relative intensity
401	100
331	100
300	32
386	53
370	40
370	31
