Mass spectrum: Quercetin-3-Arabinoside-7-rhamnoside; MS2; Q-TOF; [M-H]-; 15->55V
Name: Quercetin-3-Arabinoside-7-rhamnoside
Class: CLASS1 Flavonoid
Class: CLASS2 Flavonol
Class: CLASS3 Quercetin glycoside
Exact mass: 0
Ion type: [M-H]-
Precursor m/z: 579.1334
m/z	relative intensity
579.1334	62
447.0916	10
446.0823	45
433.0754	7
301.0342	24
300.0239	7
299.0181	100
271.0222	30
