Mass spectrum: Rutaecarpine; MS2; QqQ; [M+H]+; 30–>50%
Name: Rutaecarpine
Class: CLASS1 Alkaloid
Class: CLASS2 Indoloquinazoline
Class: CLASS3 Rutaecarpine
Formula: C18H13N3O1
Exact mass: 287.11 
Ion type: [M+H]+
Precursor m/z: 288
m/z	relative intensity
287	100
273	100
260	100
