Mass spectrum: Quercetin-3-rhamnoside; MS2; Q-TOF; [M-H]-; 15->55V
Name: Quercetin-3-rhamnoside
Class: CLASS1 Flavonoid
Class: CLASS2 Flavonol
Class: CLASS3 Quercetin glycoside
Exact mass: 0
Ion type: [M-H]-
Precursor m/z: 448.0824
m/z	relative intensity
448.0824	20
447.0932	100
301.0385	67
300.0319	69
271.0306	46
255.0361	22
243.0284	8
227.031	7
178.9995	8
151.0028	15
96.9607	11
95.9533	10
74.9891	5
