Mass spectrum: Flavonoid O-hexoside malonylated; MS2; QqQ; [M+H]+; 27%
Name: Flavonoid O-hexoside malonylated
Class: CLASS1 Other
Class: CLASS2 Other
Class: CLASS3 Other
Exact mass: no data
Ion type: [M+H]+
Precursor m/z: 549
m/z	relative intensity
301	100
286	100
269	100
241	100
229	100
127	100
