Mass spectrum: Spermidine-feruloyl-hydroxyferuloyl; MS2; Q-TOF; [M+H]+; 15->55V
Name: Spermidine-feruloyl-hydroxyferuloyl
Class: CLASS1 Alkaloid
Class: CLASS2 Polyamine
Class: CLASS3 Spermidine
Exact mass: 0
Ion type: [M+H]+
Precursor m/z: 514.2426
m/z	relative intensity
514.2426	100
250.1054	9
193.0467	16
177.0554	17
145.0237	11
133.0187	8
117.0285	8
