Mass spectrum: 3,5-Diferuloylquinic acids; MS2; QqQ; [M-H]-; 20eV
Name: 3,5-Diferuloylquinic acids
Name: Cyclohexanecarboxylic acid, 1,4-dihydroxy-3,5-bis[[3-(4-hydroxy-3-methoxyphenyl)-1-oxo-2-propen-1-yl]oxy]-, (1.alpha.,3R,4.alpha.,5R)-
Class: CLASS1 Phenylpropanoid
Class: CLASS2 Phenylpropanoid ester
Class: CLASS3 Quinic acid
Formula: C27H28N0O12
Exact mass: 544.16 
Ion type: [M-H]-
Precursor m/z: 542.8
m/z	relative intensity
542.8	55
349	100
