Mass spectrum: Malvidin 3-O-glucoside; MS2; QqQ; [M]+; n.d.
Name: Malvidin 3-O-glucoside
Name: 1-Benzopyrylium, 3-(.beta.-D-glucopyranosyloxy)-5,7-dihydroxy-2-(4-hydroxy-3,5-dimethoxyphenyl)-, chloride (1:1)
Class: CLASS1 Flavonoid
Class: CLASS2 Anthocyanin
Class: CLASS3 Malvidin glycoside
Formula: C23H25O12
Exact mass: 493.13 
Ion type: [M]+
Precursor m/z: 493
m/z	relative intensity
493	50
331	100
315	100
299	100
