Mass spectrum: Shanzhiside; MS2; Q-TOF; [M-H]-; 10->20V
Name: Shanzhiside
Class: CLASS1 Terpenoid
Class: CLASS2 Iridoid
Class: CLASS3 Shanzhiside
Formula: C16H24O11
Exact mass: 392.13 
Ion type: [M-H]-
Precursor m/z: 391.1312
m/z	relative intensity
391	10
342	2
275	2
271	2
230	5
229	15
211	15
193	10
185	60
168	10
167	98
149	90
131	12
127	40
113	40
101	100
97	8
89	55
85	25
83	12
71	65
59	20
