Mass spectrum: Gomisin G; MS2; QIT; [M+Na]+; 30->50%
Name: Gomisin G
Name: Benzo[3,4]cycloocta[1,2-f][1,3]benzodioxole-7,8-diol, 5,6,7,8-tetrahydro-1,2,3,13-tetramethoxy-6,7-dimethyl-, 8-benzoate, (6S,7S,8S,13aS)-
Class: CLASS1 Phenylpropanoid
Class: CLASS2 Lignan
Formula: C30H32O9
Exact mass: 536.20 
Ion type: [M+Na]+
Precursor m/z: 559
m/z	relative intensity
559	100
415	100
371	50
342	16
