Mass spectrum: 5,7-Dihydroxy-4'-methoxy-6,8-dipenylisoflavone; MS2; QIT; [M-H]-; 48%
Name: 5,7-Dihydroxy-4'-methoxy-6,8-dipenylisoflavone
Class: CLASS1 Other
Class: CLASS2 Other
Class: CLASS3 Other
Formula: C26H28O5
Exact mass: 420.19 
Ion type: [M-H]-
Precursor m/z: 419
m/z	relative intensity
420	25
419	69
404	100
365	20
322	6
