Mass spectrum: Quercetin 3-glucoside; MS2; QIT; [M+H]+; n.d.
Name: Quercetin 3-glucoside
Class: CLASS1 Flavonoid
Class: CLASS2 Flavonol
Class: CLASS3 Quercetin glycoside
Formula: C21H20O12
Exact mass: 464.10 
Ion type: [M+H]+
Precursor m/z: 465
m/z	relative intensity
303	100
