Mass spectrum: Pentosyl-rutin; MS2; Q-TOF; [M+H]+; 10->20V
Name: Pentosyl-rutin
Class: CLASS1 Flavonoid
Class: CLASS2 Flavonol
Class: CLASS3 Quercetin glycoside
Exact mass: no data
Ion type: [M+H]+
Precursor m/z: 743
m/z	relative intensity
743	100
611	57
465	14
303	36
