Mass spectrum: Ternatin D2; MS2; QIT; [M+H]+; n.d.
Name: Ternatin D2
Class: CLASS1 Flavonoid
Class: CLASS2 Flavone
Class: CLASS3 Ternatin
Exact mass: no data
Ion type: [M+H]+
Precursor m/z: 1475
m/z	relative intensity
1329	100
1167	100
