Mass spectrum: Arnottianamide; MS2; QIT; [M+H]+; 35%
Name: Arnottianamide
Class: CLASS1 Alkaloid
Class: CLASS2 Benzophenanthridine
Class: CLASS3 Arnottianamide
Formula: C21H19N1O6
Exact mass: 381.12 
Ion type: [M+H]+
Precursor m/z: 382
m/z	relative intensity
382	100
364	100
