Mass spectrum: Delphinidin 3-xyloside-glucoside; MS2; QqQ; [M]+; 15->30V
Name: Delphinidin 3-xyloside-glucoside
Class: CLASS1 Flavonoid
Class: CLASS2 Anthocyanin
Class: CLASS3 Delphinidin glycoside
Formula: C26H29O16Cl1
Exact mass: 597.15 
Ion type: [M]+
Precursor m/z: 597.2
m/z	relative intensity
303.2	100
