Mass spectrum: Spermidine N-sinapoyl-N'-(3,5-dimethoxy-4-hexosyloxycinnamoyl); MS2; Q-TOF; [M-H]-; 15->55V
Name: Spermidine N-sinapoyl-N'-(3,5-dimethoxy-4-hexosyloxycinnamoyl)
Class: CLASS1 Alkaloid
Class: CLASS2 Polyamine
Class: CLASS3 Spermidine
Exact mass: 0
Ion type: [M-H]-
Precursor m/z: 718.3239
m/z	relative intensity
718.3239	52
556.2692	100
541.2571	4
376.191	24
361.1687	8
179.0735	17
165.057	5
164.0492	8
