Mass spectrum: 1-Deoxy-10-deacetyl-7-xylosyltaxol C; MS2; in source CID; [M-H]-; 40V
Name: 1-Deoxy-10-deacetyl-7-xylosyltaxol C
Class: CLASS1 Terpenoid
Class: CLASS2 Diterpenoid
Class: CLASS3 Taxol
Exact mass: no data
Ion type: [M-H]-
Precursor m/z: 921
m/z	relative intensity
966	100
649	100
278	100
