Mass spectrum: Glycosylated methylhydroxytyrosol 1; MS2; Q-TOF; [M+NH4]+; 15V
Name: Glycosylated methylhydroxytyrosol 1
Class: CLASS1 Other
Class: CLASS2 Other
Class: CLASS3 Other
Formula: C15H22O8
Exact mass: 330.13 
Ion type: [M+NH4]+
Precursor m/z: 348
m/z	relative intensity
334.1422	30
317.1151	12
299.1097	3
281.0966	9
263.0889	10
221.0752	5
180.0838	15
163.0573	6
155.0675	100
145.0474	11
137.0592	78
127.0387	3
