Mass spectrum: Asperuloside; MS2; Q-TOF; [M-H]-; 10->20V
Name: Asperuloside
Class: CLASS1 Terpenoid
Class: CLASS2 Iridoid
Class: CLASS3 Asperuloside
Formula: C18H22O11
Exact mass: 414.12 
Ion type: [M-H]-
Precursor m/z: 413.1096
m/z	relative intensity
413	15
251	5
192	2
191	20
163	2
148	10
147	100
119	2
101	2
71	2
