Mass spectrum: Sinapoymalate; MS2; Q-TOF; [M-H]-; 15->55V
Name: Sinapoymalate
Class: CLASS1 Phenylpropanoid
Class: CLASS2 Phenylpropanoid ester
Class: CLASS3 Sinapoyl malate
Formula: C15H16O9
Exact mass: 340.0794321
Ion type: [M-H]-
Precursor m/z: 223.0586
m/z	relative intensity
223.0586	100
208.0391	7
193.0166	4
179.0724	5
164.0484	62
149.0245	99
147.0461	7
133.016	5
121.0306	41
115.0055	11
93.0368	5
71.017	20
