Mass spectrum: Kaempferol-dihexoside-rhamnoside; MS2; Q-TOF; [M-H]-; 15->55V
Name: Kaempferol-dihexoside-rhamnoside
Class: CLASS1 Flavonoid
Class: CLASS2 Flavonol
Class: CLASS3 Kaempferol glycoside
Exact mass: 0
Ion type: [M-H]-
Precursor m/z: 756.2276
m/z	relative intensity
756.2276	4
755.2172	100
754.2672	5
709.0914	4
593.1702	28
447.1009	88
285.0425	28
284.0506	10
255.0245	4
72.9937	5
