Mass spectrum: Alloimperatorin; MS2; QIT; [M+H]+; 13->37%
Name: Alloimperatorin
Class: CLASS1 Phenylpropanoid
Class: CLASS2 Coumarin
Class: CLASS3 Other
Formula: C16H14O4
Exact mass: 270.09 
Ion type: [M+H]+
Precursor m/z: 271
m/z	relative intensity
271	50
229	100
211	60
201	30
183	32
