Mass spectrum: Cyanidin 3-O-glucuronide; MS2; QqQ; [M]+; n.d.
Name: Cyanidin 3-O-glucuronide
Class: CLASS1 Flavonoid
Class: CLASS2 Anthocyanin
Class: CLASS3 Cyanidin glycoside
Formula: C21H19O12
Exact mass: 463.09 
Ion type: [M]+
Precursor m/z: 463
m/z	relative intensity
463	50
287	100
