Mass spectrum: Malvidin 3-O-(6-O-p-coumaroyl)glucoside cis; MS2; QqQ; [M]+; n.d.
Name: Malvidin 3-O-(6-O-p-coumaroyl)glucoside cis
Class: CLASS1 Flavonoid
Class: CLASS2 Anthocyanin
Class: CLASS3 Malvidin glycoside
Formula: C32H31O14
Exact mass: 639.17 
Ion type: [M]+
Precursor m/z: 639
m/z	relative intensity
639	50
331	100
