Mass spectrum: Tryptophan; MS2; Q-TOF; [M+H]+; 20V
Name: Tryptophan
Name: L-Tryptophan
Class: CLASS1 Amino acid
Class: CLASS2 Tryptophan
Formula: C11H12N2O2
Exact mass: 204.09 
Ion type: [M+H]+
Precursor m/z: 204.0899
m/z	relative intensity
205.0981	100
188.0699	100
