Mass spectrum: Propanedioic acid 1-[1-carboxy-2-(phenylthio)ethyl] ester; MS2; QIT; [MH]+; 45%
Name: Propanedioic acid 1-[1-carboxy-2-(phenylthio)ethyl] ester
Class: CLASS1 Other
Class: CLASS2 Other
Class: CLASS3 Other
Formula: C12H12O6S1
Exact mass: 284.04 
Ion type: [MH]+
Precursor m/z: 313
m/z	relative intensity
313	3
195	100
135	4
109	8
