Mass spectrum: 2',5'-Dihydroxyl 4''-caffeoyl matairesinol; MS2; QIT; [M-H]-; 45%
Name: 2',5'-Dihydroxyl 4''-caffeoyl matairesinol
Class: CLASS1 Phenylpropanoid
Class: CLASS2 Lignan
Class: CLASS3 Matairesinol
Exact mass: no data
Ion type: [M-H]-
Precursor m/z: 551
m/z	relative intensity
551	100
389	100
345	99
327	16
193	28
