Mass spectrum: Dehydrolariciresinol-hexoside, putative; MS2; Q-TOF; [M-H]-; 15->55V
Name: Dehydrolariciresinol-hexoside, putative
Class: CLASS1 Phenylpropanoid
Class: CLASS2 Lignan
Class: CLASS3 Dehydrolariciresinol glycoside
Exact mass: 0
Ion type: [M-H]-
Precursor m/z: 519.1828
m/z	relative intensity
519.1828	26
357.1341	35
328.1289	4
327.1216	100
312.1017	15
294.0923	6
279.0648	8
191.0711	6
190.0622	4
189.0563	3
176.0476	3
175.0422	3
151.0399	3
109.0302	3
