Mass spectrum: Brachynoside; MS2; QIT; [M-H]-; 45%
Name: Brachynoside
Class: CLASS1 Other
Class: CLASS2 Other
Class: CLASS3 Other
Formula: C31H40O15
Exact mass: 652.24 
Ion type: [M-H]-
Precursor m/z: 651
m/z	relative intensity
651	100
489	100
471	5
