Mass spectrum: Quercetin-3-pentose,deoxyhexoside-7-deoxyhexoside; MS2; Q-TOF; [M-H]-; 15->55V
Name: Quercetin-3-pentose,deoxyhexoside-7-deoxyhexoside
Class: CLASS1 Flavonoid
Class: CLASS2 Flavonol
Class: CLASS3 Quercetin glycoside
Exact mass: 0
Ion type: [M-H]-
Precursor m/z: 727.6287
m/z	relative intensity
727.6287	5
726.1954	7
725.6157	7
725.1818	100
724.8046	7
679.809	5
579.1278	29
446.0814	24
300.0184	8
299.0182	31
