Mass spectrum: Luteolin; MS2; QIT; [M+H]+; 20->60%
Name: Luteolin
Name: 4H-1-Benzopyran-4-one, 2-(3,4-dihydroxyphenyl)-5,7-dihydroxy-
Class: CLASS1 Flavonoid
Class: CLASS2 Flavone
Class: CLASS3 Luteolin
Formula: C15H10O6
Exact mass: 286.05 
Ion type: [M+H]+
Precursor m/z: 287
m/z	relative intensity
287	40
269	10
259	6
241	19
231	2
213	1
245	9
203	5
171	3
147	1
111	1
153	100
135	12
111	2
127	1
109	1
179	1
161	10
