Mass spectrum: 7-epi-10-Deacetylbaccatin III; MS2; in source CID; [M-H]-; 40V
Name: 7-epi-10-Deacetylbaccatin III
Class: CLASS1 Terpenoid
Class: CLASS2 Diterpenoid
Class: CLASS3 Baccatin
Formula: C29H36O10
Exact mass: 544.23 
Ion type: [M-H]-
Precursor m/z: 544
m/z	relative intensity
543	100
421	100
391	100
121	100
