Mass spectrum: 3-Feruloylquinic acids; MS2; QqQ; [M-H]-; 60eV
Name: 3-Feruloylquinic acids
Name: Cyclohexanecarboxylic acid, 1,3,4-trihydroxy-5-[[3-(4-hydroxy-3-methoxyphenyl)-1-oxo-2-propen-1-yl]oxy]-, (1R,3S,4S,5S)-rel-
Class: CLASS1 Phenylpropanoid
Class: CLASS2 Phenylpropanoid ester
Class: CLASS3 Quinic acid
Formula: C17H20N0O9
Exact mass: 368.11 
Ion type: [M-H]-
Precursor m/z: 366.8
m/z	relative intensity
134	100
116.9	27
88.5	62
