Mass spectrum: 3-Caffeoylquinic acids; MS2; QqQ; [M+H]+; 30eV
Name: 3-Caffeoylquinic acids
Name: Cyclohexanecarboxylic acid, 3-[[3-(3,4-dihydroxyphenyl)-1-oxo-2-propen-1-yl]oxy]-1,4,5-trihydroxy-, (1S,3R,4R,5R)-
Class: CLASS1 Phenylpropanoid
Class: CLASS2 Phenylpropanoid ester
Class: CLASS3 Quinic acid
Formula: C16H18N0O9
Exact mass: 354.10 
Ion type: [M+H]+
Precursor m/z: 354.8
m/z	relative intensity
162.9	100
144.8	34
134.8	28
116.7	17
