Mass spectrum: 4-Methoxy-3-indolylmethyl glucosinolate; MS2; QIT; [M-H]-; 35
Name: 4-Methoxy-3-indolylmethyl glucosinolate
Name: 4-Methoxyglucobrassicin
Class: CLASS1 Glucosinolate
Class: CLASS2 Indole glucosinolate
Formula: C17H22N2O10S2
Exact mass: 478.07 
Ion type: [M-H]-
Precursor m/z: 477
m/z	relative intensity
463	100
397	100
299	100
291	100
275	100
259	100
235	100
227	100
195	100
