Mass spectrum: Epigallocatechol 3-gallate; MS2; QIT; [M-H]-; 35V
Name: Epigallocatechol 3-gallate
Name: Benzoic acid, 3,4,5-trihydroxy-, (2R,3R)-3,4-dihydro-5,7-dihydroxy-2-(3,4,5-trihydroxyphenyl)-2H-1-benzopyran-3-yl ester
Class: CLASS1 Tannin
Class: CLASS2 Proanthocyanidin
Formula: C22H18O11
Exact mass: 458.08 
Ion type: [M-H]-
Precursor m/z: 457
m/z	relative intensity
331.06	73
305.07	32
287.06	12
192.98	6
168.95	100
