Mass spectrum: Guaiasylglycerol-beta-feruloyl ether related metabolite; MS2; Q-TOF; [M-H]-; 15->55V
Name: Guaiasylglycerol-beta-feruloyl ether related metabolite
Name: F(4-O-b)G related metabolite#4
Class: CLASS1 Phenylpropanoid
Class: CLASS2 Lignan
Class: CLASS3 Guaiasylglycerol-feruloyl ether
Exact mass: 0
Ion type: [M-H]-
Precursor m/z: 389.116
m/z	relative intensity
389.116	68
389.0284	18
271.0143	13
195.0654	40
193.0499	100
181.0637	13
178.024	18
165.0496	77
151.042	13
150.0286	54
134.0379	50
