Mass spectrum: 1-Hydroxyindol-3-ylmethyl glucosinolate; MS2; Q-TOF; [M-H]-; 15->55V
Name: 1-Hydroxyindol-3-ylmethyl glucosinolate
Class: CLASS1 Glucosinolate
Class: CLASS2 Indole glucosinolate
Exact mass: 0
Ion type: [M-H]-
Precursor m/z: 463.0485
m/z	relative intensity
463.0485	100
156.8971	11
96.9575	92
74.9899	11
