Mass spectrum: 9-Caffeoyl-2,7-anhydro-3-deoxy-2-ocutulopyranosonic acid; MS2; QIT; [M-H]-; 40%
Name: 9-Caffeoyl-2,7-anhydro-3-deoxy-2-ocutulopyranosonic acid
Class: CLASS1 Phenylpropanoid
Class: CLASS2 Phenylpropanoid ester
Class: CLASS3 Other
Exact mass: no data
Ion type: [M-H]-
Precursor m/z: 381
m/z	relative intensity
337	7
293	25
251	34
245	5
219	2
203	4
201	2
179	20
161	100
135	6
133	6
