Mass spectrum: Oleuropein aglycon derivative; MS2; QIT; [M-H]-; n.d.
Name: Oleuropein aglycon derivative
Class: CLASS1 Other
Class: CLASS2 Carboxylic acid
Class: CLASS3 Oleuropein
Formula: C19H22O8
Exact mass: 378.13 
Ion type: [M-H]-
Precursor m/z: 377
m/z	relative intensity
197	100
153	100
