Mass spectrum: Glucobrassicin; MS2; QIT; [M-H]-; 30->35%
Name: Glucobrassicin
Class: CLASS1 Glucosinolate
Class: CLASS2 Indole glucosinolate
Formula: C16H20N2O9S2
Exact mass: 448.06 
Ion type: [M-H]-
Precursor m/z: 447
m/z	relative intensity
447	100
275	100
259	100
227	100
205	100
