Mass spectrum: Dicaffeoylquinic acid III; MS2; Q-TOF; [M-H]-; 10V
Name: Dicaffeoylquinic acid III
Class: CLASS1 Phenylpropanoid
Class: CLASS2 Phenylpropanoid ester
Class: CLASS3 Quinic acid
Formula: C25H24O12
Exact mass: 516.13 
Ion type: [M-H]-
Precursor m/z: 515.1193
m/z	relative intensity
515	100
191	100
353	100
