Mass spectrum: Dihydronitidine; MS2; QIT; [M+H]+; 35%
Name: Dihydronitidine
Name: 5,6-Dihydronitidine
Class: CLASS1 Alkaloid
Class: CLASS2 Benzophenanthridine
Class: CLASS3 Nitidine
Formula: C21H19N1O4
Exact mass: 349.13 
Ion type: [M+H]+
Precursor m/z: 348
m/z	relative intensity
333	20
348	100
304	10
