Mass spectrum: gamma-L-Glutamyl-L-cysteinyl-beta-alanine; MS2; QIT; [M+H]+; 25V
Name: gamma-L-Glutamyl-L-cysteinyl-beta-alanine
Class: CLASS1 Amino acid
Class: CLASS2 Peptide
Class: CLASS3 Oligo peptide
Exact mass: no data
Ion type: [M+H]+
Precursor m/z: 322
m/z	relative intensity
322	5
305	16
259.1	30
233.2	19
193.2	30
176.1	100
130.2	23
90.1	96
84.1	39
73.1	1
