Mass spectrum: Tembetarine; MS2; QIT; [M+H]+; 25V
Name: Tembetarine
Class: CLASS1 Alkaloid
Class: CLASS2 Diterpene
Class: CLASS3 Tembetarine
Formula: C20H26N1O4
Exact mass: 344.19 
Ion type: [M+H]+
Precursor m/z: 344
m/z	relative intensity
329	20
312	3
301	40
299	100
269	9
267	11
206	3
175	35
151	6
137	11
