Mass spectrum: 1,4-Dicaffeoylquinic acid; MS2; QIT; [M-H]-; 40%
Name: 1,4-Dicaffeoylquinic acid
Class: CLASS1 Phenylpropanoid
Class: CLASS2 Phenylpropanoid ester
Class: CLASS3 Quinic acid
Formula: C25H24O12
Exact mass: 516.13 
Ion type: [M-H]-
Precursor m/z: 515
m/z	relative intensity
471	6
353	100
335	16
317	53
299	70
255	25
203	58
179	3
175	3
