Mass spectrum: Peonidin-3-(6''-malonylglucoside); MS2; QIT; [M]+; 160V
Name: Peonidin-3-(6''-malonylglucoside)
Class: CLASS1 Flavonoid
Class: CLASS2 Anthocyanin
Class: CLASS3 Peonidin glycoside
Formula: C25H25O14
Exact mass: 549.12 
Ion type: [M]+
Precursor m/z: 549
m/z	relative intensity
549	100
301	100
