Mass spectrum: Derhamnosyl suspensaside; MS2; QIT; [M-H]-; 45%
Name: Derhamnosyl suspensaside
Class: CLASS1 Phenylpropanoid
Class: CLASS2 Phenylpropanoid glycoside
Class: CLASS3 Suspensaside
Exact mass: no data
Ion type: [M-H]-
Precursor m/z: 493
m/z	relative intensity
493	100
475	100
341	5
323	1
281	1
179	1
161	100
135	20
