Mass spectrum: 2'b-Hydroxyecdysone; MS2; QIT; [M+H]+; 25V
Name: 2'b-Hydroxyecdysone
Class: CLASS1 Terpenoid
Class: CLASS2 Triterpenoid
Class: CLASS3 Ecdysone
Formula: C27H44O6
Exact mass: 464.31 
Ion type: [M+H]+
Precursor m/z: 463
m/z	relative intensity
445	41
427	100
409	35
391	2
353	2
329	4
301	40
283	2
