Mass spectrum: Phytolaccagenic acid 3-O-glucose(1'''->4'')glucose(1''->4')glucose; MS2; QIT; [M+H]+; 200V
Name: Phytolaccagenic acid 3-O-glucose(1'''->4'')glucose(1''->4')glucose
Class: CLASS1 Terpenoid
Class: CLASS2 Triterpenoid
Class: CLASS3 Phytolaccagenic acid
Formula: C49H78O21
Exact mass: 1002.50 
Ion type: [M+H]+
Precursor m/z: 1165
m/z	relative intensity
1003	100
841	100
679	100
517	100
