Mass spectrum: Coumaroyl-hexose-hydroxyphenol; MS2; QqQ; [M-H]-; 40V
Name: Coumaroyl-hexose-hydroxyphenol
Class: CLASS1 Phenylpropanoid
Class: CLASS2 Phenylpropanoid glycoside
Class: CLASS3 Coumaroyl glycoside
Exact mass: no data
Ion type: [M-H]-
Precursor m/z: 417
m/z	relative intensity
417	100
307	100
187	100
163	100
145	100
119	100
