Mass spectrum: 3,5-Diacetoxy-1,7-bis(3,4-dihydroxyphenyl)heptane; MS2; QIT; [M+H]+; 32V
Name: 3,5-Diacetoxy-1,7-bis(3,4-dihydroxyphenyl)heptane
Class: CLASS1 Other
Class: CLASS2 Alkane
Formula: C21H28O6
Exact mass: 376.19 
Ion type: [M+H]+
Precursor m/z: 377
m/z	relative intensity
341	100
359	100
163	100
217	100
137	100
