Mass spectrum: Daidzein O-hexoside malonylated IV; MS2; QqQ; [M+H]+; 27%
Name: Daidzein O-hexoside malonylated IV
Class: CLASS1 Flavonoid
Class: CLASS2 Isoflavone
Class: CLASS3 Daidzein glycoside
Exact mass: no data
Ion type: [M+H]+
Precursor m/z: 503
m/z	relative intensity
323	100
311	100
291	100
279	100
255	100
199	100
187	100
175	100
161	100
137	100
109	100
