Mass spectrum: Quercetin-dihexoside-rhamnoside-isomer; MS2; Q-TOF; [M-H]-; 15->55V
Name: Quercetin-dihexoside-rhamnoside-isomer
Class: CLASS1 Flavonoid
Class: CLASS2 Flavonol
Class: CLASS3 Quercetin glycoside
Exact mass: 0
Ion type: [M-H]-
Precursor m/z: 772.2018
m/z	relative intensity
772.2018	4
771.1943	100
609.146	7
608.1405	7
464.0918	3
463.0867	96
301.0365	25
300.0268	26
299.0202	17
271.0255	5
