Mass spectrum: 5-O-Methylvisamminol; MS2; QIT; [M+H]+; 13->37%
Name: 5-O-Methylvisamminol
Class: CLASS1 Other
Class: CLASS2 Chromone
Class: CLASS3 Samminol
Formula: C16H18O5
Exact mass: 290.12 
Ion type: [M+H]+
Precursor m/z: 291
m/z	relative intensity
291	50
273	100
243	35
219	95
