Mass spectrum: (2R)-2-Hydroxy-3-butenyl glucosinolate; MS2; QIT; [M-H]-; 35
Name: (2R)-2-Hydroxy-3-butenyl glucosinolate
Name: Progoitrin
Name: epiprogoitrin
Class: CLASS1 Glucosinolate
Class: CLASS2 Aliphatic glucosinolate
Formula: C11H19N1O10S2
Exact mass: 389.05 
Ion type: [M-H]-
Precursor m/z: 388
m/z	relative intensity
332	100
308	100
301	100
275	100
259	100
210	100
195	100
136	100
