Mass spectrum: Methylhedysarimcoumestan H; MS2; QIT; [M-H]-; 48%
Name: Methylhedysarimcoumestan H
Class: CLASS1 Phenylpropanoid
Class: CLASS2 Coumestan
Class: CLASS3 Hedysarimcoumestan
Exact mass: no data
Ion type: [M-H]-
Precursor m/z: 395
m/z	relative intensity
380	100
337	13
