Mass spectrum: 3-(4-Hexosyloxyphenyl)propanoylcholine; MS2; Q-TOF; [M+H]+; 15->55V
Name: 3-(4-Hexosyloxyphenyl)propanoylcholine
Class: CLASS1 Phenylpropanoid
Class: CLASS2 Phenylpropanoid ester
Class: CLASS3 Choline
Exact mass: 0
Ion type: [M+H]+
Precursor m/z: 415.217
m/z	relative intensity
415.217	3
414.2088	100
414.0289	3
355.1411	4
193.0866	5
181.0494	7
107.0488	92
87.0427	3
