Mass spectrum: Procyanidin dimer B; MS2; QIT; [M+H]+; 35%
Name: Procyanidin dimer B
Class: CLASS1 Tannin
Class: CLASS2 Proanthocyanidin
Exact mass: no data
Ion type: [M+H]+
Precursor m/z: 579
m/z	relative intensity
427	100
409	100
291	100
301	100
247	100
