Mass spectrum: Coumaroyl-glucosyl-rhamnosyl-quercetin; MS2; QIT; [M-H]-; 28%
Name: Coumaroyl-glucosyl-rhamnosyl-quercetin
Class: CLASS1 Flavonoid
Class: CLASS2 Flavonol
Class: CLASS3 Quercetin glycoside
Exact mass: no data
Ion type: [M-H]-
Precursor m/z: 755
m/z	relative intensity
609	100
