Mass spectrum: Kaempferol-3-O-a-L-rhamnosyl(1,2)-b-D-glucoside-7-O-a-L-rhamnoside; MS2; Q-TOF; [M+H]+; 15->55V
Name: Kaempferol-3-O-a-L-rhamnosyl(1,2)-b-D-glucoside-7-O-a-L-rhamnoside
Class: CLASS1 Flavonoid
Class: CLASS2 Flavonol
Class: CLASS3 Kaempferol glycoside
Formula: C33H40O19
Exact mass: 740.2163791
Ion type: [M+H]+
Precursor m/z: 741.2263
m/z	relative intensity
741.2263	23
595.1711	24
433.1154	62
287.0577	100
129.053	3
85.0224	7
