Mass spectrum: Taxchinin I; MS2; in source CID; [M+H]+; 40V
Name: Taxchinin I
Class: CLASS1 Terpenoid
Class: CLASS2 Diterpenoid
Class: CLASS3 Taxchinin
Formula: C40H46O13
Exact mass: 734.29 
Ion type: [M+H]+
Precursor m/z: 734
m/z	relative intensity
757	100
752	100
735	100
717	100
657	100
597	100
535	100
475	100
415	100
355	100
