Mass spectrum: Spermidine-feruloyl-hydroxyferuloyl; MS2; Q-TOF; [M-H]-; 15->55V
Name: Spermidine-feruloyl-hydroxyferuloyl
Class: CLASS1 Alkaloid
Class: CLASS2 Polyamine
Class: CLASS3 Spermidine
Exact mass: 0
Ion type: [M-H]-
Precursor m/z: 512.2393
m/z	relative intensity
512.2393	100
362.1666	10
347.1447	5
346.1775	13
336.1827	3
331.1573	3
321.1682	6
320.1629	3
263.1057	5
220.0593	5
165.0539	33
164.048	4
151.0365	3
150.0308	20
149.0584	8
135.0407	11
134.0379	7
