Mass spectrum: Tetrahydropalmatine; MS2; QIT; [M+H]+; 80%
Name: Tetrahydropalmatine
Class: CLASS1 Alkaloid
Class: CLASS2 Isoquinoline
Class: CLASS3 Palmatine
Exact mass: no data
Ion type: [M+H]+
Precursor m/z: 356.1
m/z	relative intensity
356.1	22
340	4
192	41
165	22
150	7
