Mass spectrum: Arctiin; MS2; QIT; [M-H]-; 45%
Name: Arctiin
Class: CLASS1 Phenylpropanoid
Class: CLASS2 Lignan
Class: CLASS3 Arctiin
Formula: C27H34O11
Exact mass: 534.21 
Ion type: [M-H]-
Precursor m/z: 593
m/z	relative intensity
593	100
533	28
371	100
