Mass spectrum: 6,8-di-C-Glucosylapigenin; MS2; QIT; [M-H]-; 40%
Name: 6,8-di-C-Glucosylapigenin
Class: CLASS1 Flavonoid
Class: CLASS2 Flavone
Class: CLASS3 Apigenin glycoside
Formula: C27H30O15
Exact mass: 594.16 
Ion type: [M-H]-
Precursor m/z: 593
m/z	relative intensity
593	100
575	8
503	24
473	78
383	5
353	9
