Mass spectrum: p-Hydroxybenzaldehyde; MS2; QqQ; [M-H]-; n.d.
Name: p-Hydroxybenzaldehyde
Name: Benzaldehyde, 4-hydroxy-
Class: CLASS1 Other
Class: CLASS2 Benzoic acid
Class: CLASS3 Hydroxybenzaldehyde
Formula: C7H6O2
Exact mass: 122.04 
Ion type: [M-H]-
Precursor m/z: 121
m/z	relative intensity
121	50
92	100
