Mass spectrum: Dihydroxymethylbenzoyltetragalloyl glucose; MS2; Q-TOF; [M-H]-; 20->80V
Name: Dihydroxymethylbenzoyltetragalloyl glucose
Class: CLASS1 Tannin
Class: CLASS2 Gallotannin
Class: CLASS3 Galloyl glycoside
Exact mass: no data
Ion type: [M-H]-
Precursor m/z: 937
m/z	relative intensity
785	100
635	100
465	100
301	100
275	100
169	100
