Mass spectrum: Calceolarioside C; MS2; QIT; [M-H]-; 45%
Name: Calceolarioside C
Class: CLASS1 Phenylpropanoid
Class: CLASS2 Phenylpropanoid glycoside
Class: CLASS3 Calceolarioside
Formula: C28H34O15
Exact mass: 610.19 
Ion type: [M-H]-
Precursor m/z: 609
m/z	relative intensity
609	100
447	100
315	2
