Mass spectrum: 10-Deacetyl cephalomannine; MS2; in source CID; [M-H]-; 40V
Name: 10-Deacetyl cephalomannine
Class: CLASS1 Terpenoid
Class: CLASS2 Diterpenoid
Class: CLASS3 Cephalomannine
Formula: C43H51N1O13
Exact mass: 789.34 
Ion type: [M-H]-
Precursor m/z: 789
m/z	relative intensity
856	100
810	100
746	100
501	100
