Mass spectrum: 3-Methylsulfinylpropyl glucosinolate; MS2; QIT; [M-H]-; 0.8V
Name: 3-Methylsulfinylpropyl glucosinolate
Name: Glucoiberin
Class: CLASS1 Glucosinolate
Class: CLASS2 Aliphatic glucosinolate
Formula: C11H21N1O10S3
Exact mass: 423.03 
Ion type: [M-H]-
Precursor m/z: 422
m/z	relative intensity
407	5
358	100
342	1
291	1
275	2
259	10
241	2
195	3
180	5
162	3
