Mass spectrum: 1,5-di-O-Caffeoylquinic acid; MS2; QqQ; [M-H]-; 50V
Name: 1,5-di-O-Caffeoylquinic acid
Class: CLASS1 Phenylpropanoid
Class: CLASS2 Phenylpropanoid ester
Class: CLASS3 Quinic acid
Formula: C25H24O12
Exact mass: 516.13 
Ion type: [M-H]-
Precursor m/z: 515
m/z	relative intensity
515	100
353	100
191	87
335	11
