Mass spectrum: Indol-3-ylmethyl glucosinolate; MS2; Q-TOF; [M-H]-; 15->55V
Name: Indol-3-ylmethyl glucosinolate
Name: glucobrassicin
Class: CLASS1 Glucosinolate
Class: CLASS2 Indole glucosinolate
Formula: C16H20N2O9S2
Exact mass: 448.0610223
Ion type: [M-H]-
Precursor m/z: 447.0517
m/z	relative intensity
447.0517	100
96.9601	42
95.9523	24
79.9573	3
74.9914	11
