Mass spectrum: Guaiasylglycerol-beta-feruloyl ether-malonyl-isomer; MS2; Q-TOF; [M-H]-; 15->55V
Name: Guaiasylglycerol-beta-feruloyl ether-malonyl-isomer
Name: F(4-O-b)G-malonyl-isomer
Class: CLASS1 Phenylpropanoid
Class: CLASS2 Lignan
Class: CLASS3 Guaiasylglycerol-feruloyl ether
Exact mass: 0
Ion type: [M-H]-
Precursor m/z: 505.1451
m/z	relative intensity
505.1451	34
504.6001	3
389.13	100
341.1053	41
301.0661	8
297.1166	3
282.0958	3
267.0599	3
195.071	12
193.0502	64
181.0418	6
178.0255	27
165.053	36
151.0393	15
151.0018	3
150.0288	28
149.0605	8
149.0212	15
135.052	3
134.0397	42
122.0343	3
115.0028	12
71.0146	3
