Mass spectrum: Cynanversicoside D; MS2; QIT; [M+Na]+; 0.6–>1.0V
Name: Cynanversicoside D
Class: CLASS1 Terpenoid
Class: CLASS2 Triterpenoid
Class: CLASS3 Cynanversicoside
Formula: C42H64O16
Exact mass: 824.42 
Ion type: [M+Na]+
Precursor m/z: 847
m/z	relative intensity
801	100
703	100
