Mass spectrum: P57; MS2; QIT; [M+Na]+; 30->45%
Name: P57
Class: CLASS1 Other
Class: CLASS2 Other
Class: CLASS3 Other
Formula: C47H74O15
Exact mass: 878.50 
Ion type: [M+Na]+
Precursor m/z: 901.4908
m/z	relative intensity
861	100
761	100
701	100
601	100
557	100
457	100
413	100
313	100
295	100
