Mass spectrum: Afzelechin-(4a->8)-afzelechin; MS2; in source CID; [M-H]-; 40V
Name: Afzelechin-(4a->8)-afzelechin
Class: CLASS1 Flavonoid
Class: CLASS2 Flavanol
Class: CLASS3 Afzelechin
Formula: C30H26O10
Exact mass: 546.15 
Ion type: [M-H]-
Precursor m/z: 546
m/z	relative intensity
545	100
