Mass spectrum: Isorhamnetin-3-O-glucoside; MS2; Q-TOF; [M+H]+; 15->55V
Name: Isorhamnetin-3-O-glucoside
Class: CLASS1 Flavonoid
Class: CLASS2 Flavonol
Class: CLASS3 Isorhamnetin glycoside
Exact mass: 0
Ion type: [M+H]+
Precursor m/z: 479.1116
m/z	relative intensity
479.1116	27
317.0552	100
