Mass spectrum: Forsythoside A O-glucoside; MS2; QIT; [M-H]-; 45%
Name: Forsythoside A O-glucoside
Class: CLASS1 Phenylpropanoid
Class: CLASS2 Phenylpropanoid glycoside
Class: CLASS3 Forsythoside
Exact mass: no data
Ion type: [M-H]-
Precursor m/z: 785
m/z	relative intensity
785	100
623	100
461	2
