Mass spectrum: Sinapoylcholine dimer-isomer; MS2; Q-TOF; [M+H]+; 15->55V
Name: Sinapoylcholine dimer-isomer
Class: CLASS1 Phenylpropanoid
Class: CLASS2 Lignan
Class: CLASS3 Sinapoylcholine dimer
Exact mass: 0
Ion type: [M+H]+
Precursor m/z: 332.1258
m/z	relative intensity
332.1258	19
310.6641	7
310.1588	28
252.0916	8
251.09	100
207.0666	14
175.04	22
148.0439	3
147.0451	14
129.0325	3
126.0659	8
119.0496	17
92.5494	6
91.0541	17
