Mass spectrum: Hydroxyferuloylcholine; MS2; Q-TOF; [M+H]+; 15->55V
Name: Hydroxyferuloylcholine
Class: CLASS1 Phenylpropanoid
Class: CLASS2 Phenylpropanoid ester
Class: CLASS3 Choline
Exact mass: 0
Ion type: [M+H]+
Precursor m/z: 296.1463
m/z	relative intensity
296.1463	20
237.073	100
222.0507	3
193.0497	18
165.0548	3
161.0232	29
150.0311	4
133.0277	49
122.0367	4
105.0338	11
94.0423	3
