Mass spectrum: Isoliquiritin; MS2; QIT; [M-H]-; 35%
Name: Isoliquiritin
Name: 2-Propen-1-one, 1-(2,4-dihydroxyphenyl)-3-[4-(.beta.-D-glucopyranosyloxy)phenyl]-, (2E)-
Class: CLASS1 Flavonoid
Class: CLASS2 Chalcone
Formula: C21H22O9
Exact mass: 418.13 
Ion type: [M-H]-
Precursor m/z: 417
m/z	relative intensity
255	100
