Mass spectrum: Caffeoylquinic acid II; MS2; Q-TOF; [M-H]-; 10V
Name: Caffeoylquinic acid II
Class: CLASS1 Phenylpropanoid
Class: CLASS2 Phenylpropanoid ester
Class: CLASS3 Quinic acid
Formula: C16H18O9
Exact mass: 354.10 
Ion type: [M-H]-
Precursor m/z: 353.0979
m/z	relative intensity
353	100
191	100
