Mass spectrum: Guaiasylglycerol-beta-feruloyllcholine ether 4'-O-hexoside; MS2; Q-TOF; [M+H]+; 15->55V
Name: Guaiasylglycerol-beta-feruloyllcholine ether 4'-O-hexoside
Name: FC(4-O-b)G 4'-O-hexoside
Class: CLASS1 Phenylpropanoid
Class: CLASS2 Lignan
Class: CLASS3 Feruroylcholine-guaiasyl ester
Exact mass: 0
Ion type: [M+H]+
Precursor m/z: 638.2784
m/z	relative intensity
638.2784	68
579.2042	18
221.0794	100
177.0527	12
145.0301	6
