Mass spectrum: Phelloptorin; MS2; QIT; [M+Na]+; 13->37%
Name: Phelloptorin
Class: CLASS1 Phenylpropanoid
Class: CLASS2 Coumarin
Class: CLASS3 Phellopterin
Formula: C17H16O5
Exact mass: 300.10 
Ion type: [M+Na]+
Precursor m/z: 323
m/z	relative intensity
323	50
254	100
