Mass spectrum: Dihydromelilotoside-3'-butyl ester; MS2; QIT; [M+H]+; 35%
Name: Dihydromelilotoside-3'-butyl ester
Class: CLASS1 Phenylpropanoid
Class: CLASS2 Phenylpropanoid glycoside
Class: CLASS3 Melilotoside
Exact mass: no data
Ion type: [M+H]+
Precursor m/z: 385
m/z	relative intensity
385	100
223	100
167	100
149	100
