Mass spectrum: Spermidine-diferuloyl; MS2; Q-TOF; [M-H]-; 15->55V
Name: Spermidine-diferuloyl
Class: CLASS1 Alkaloid
Class: CLASS2 Polyamine
Class: CLASS3 Spermidine
Exact mass: 0
Ion type: [M-H]-
Precursor m/z: 496.9206
m/z	relative intensity
496.9206	4
496.7374	9
496.2411	100
495.8803	4
480.2163	5
452.7721	3
346.1777	11
331.1457	5
316.7454	3
305.1786	5
304.1718	3
175.0451	3
162.8921	3
160.8898	3
149.0577	20
135.0459	4
134.0379	10
