Mass spectrum: Divaricatacid; MS2; QIT; [M+H]+; 13->37%
Name: Divaricatacid
Class: CLASS1 Other
Class: CLASS2 Other
Class: CLASS3 Other
Formula: C16H16O7
Exact mass: 320.09 
Ion type: [M+H]+
Precursor m/z: 321
m/z	relative intensity
321	50
303	95
273	20
249	100
