Mass spectrum: Myricetin 3-2G-rhamnosyl rutinoside; MS2; QIT; [M+H]+; n.d.
Name: Myricetin 3-2G-rhamnosyl rutinoside
Class: CLASS1 Flavonoid
Class: CLASS2 Flavonol
Class: CLASS3 Myricetin glycoside
Exact mass: no data
Ion type: [M+H]+
Precursor m/z: 773
m/z	relative intensity
627	100
481	100
319	100
