Mass spectrum: Delphinidin 3-glucoside-5-glucoside p-coumaric; MS2; QqQ; [M]+; 15->30V
Name: Delphinidin 3-glucoside-5-glucoside p-coumaric
Class: CLASS1 Flavonoid
Class: CLASS2 Anthocyanin
Class: CLASS3 Delphinidin glycoside
Formula: C36H37O19Cl1
Exact mass: 773.19 
Ion type: [M]+
Precursor m/z: 773.2
m/z	relative intensity
610.8	100
464.8	100
303.2	100
