Mass spectrum: Fraxidin; MS2; QIT; [M+H]+; 13->37%
Name: Fraxidin
Class: CLASS1 Phenylpropanoid
Class: CLASS2 Coumarin
Class: CLASS3 Fraxidin
Formula: C11H10O5
Exact mass: 222.05 
Ion type: [M+H]+
Precursor m/z: 223
m/z	relative intensity
223	50
208	100
