Mass spectrum: Quercetin-3-O-beta-galactoside; MS2; QqQ; [M-H]-; 40V
Name: Quercetin-3-O-beta-galactoside
Class: CLASS1 Flavonoid
Class: CLASS2 Flavonol
Class: CLASS3 Quercetin glycoside
Formula: C21H20O12
Exact mass: 464.10 
Ion type: [M-H]-
Precursor m/z: 463
m/z	relative intensity
463	100
301	100
300	100
271	100
255	100
