Mass spectrum: Unknown ellagitannin; MS2; Q-TOF; [M+H]+; 20V
Name: Unknown ellagitannin
Class: CLASS1 Other
Class: CLASS2 Other
Class: CLASS3 Other
Formula: C20H18O15
Exact mass: 498.06 
Ion type: [M+H]+
Precursor m/z: 498.0646
m/z	relative intensity
499.072	100
481.0622	100
463.0515	100
337.0203	100
