Mass spectrum: Feruloyl-containing metabolites; MS2; Q-TOF; [M+H]+; 15->55V
Name: Feruloyl-containing metabolites
Class: CLASS1 Phenylpropanoid
Class: CLASS2 Phenylpropanoid ester
Class: CLASS3 Other
Exact mass: 0
Ion type: [M+H]+
Precursor m/z: 808.3022
m/z	relative intensity
808.3022	18
601.1839	3
571.1912	3
535.1802	100
517.1696	54
499.1505	4
487.1617	33
373.1355	4
355.116	23
339.109	5
337.1012	6
325.1103	17
321.0973	3
201.0556	12
179.0695	6
177.0538	73
175.0355	5
161.0574	3
149.0609	3
145.0287	7
137.0604	3
