Mass spectrum: Caffeoyl calceolarioside C; MS2; QIT; [M-H]-; 45%
Name: Caffeoyl calceolarioside C
Class: CLASS1 Phenylpropanoid
Class: CLASS2 Phenylpropanoid glycoside
Class: CLASS3 Caffeoyl glucoside
Exact mass: no data
Ion type: [M-H]-
Precursor m/z: 771
m/z	relative intensity
771	100
609	100
447	3
