Mass spectrum: Atratoglaucoside A; MS2; QIT; [M+Na]+; 0.6–>1.0V
Name: Atratoglaucoside A
Class: CLASS1 Terpenoid
Class: CLASS2 Triterpenoid
Class: CLASS3 Atratoglaucoside
Formula: C35H52O12
Exact mass: 664.35 
Ion type: [M+Na]+
Precursor m/z: 687
m/z	relative intensity
685	100
641	100
543	100
311	100
