Mass spectrum: 3-Caffeoyl-5-feruloylquinic acids; MS2; QqQ; [M-H]-; 40eV
Name: 3-Caffeoyl-5-feruloylquinic acids
Name: Cyclohexanecarboxylic acid, 3-[[3-(3,4-dihydroxyphenyl)-1-oxo-2-propen-1-yl]oxy]-1,4-dihydroxy-5-[[3-(4-hydroxy-3-methoxyphenyl)-1-oxo-2-propen-1-yl]oxy]-, (1R,3R,4S,5R)-
Class: CLASS1 Phenylpropanoid
Class: CLASS2 Phenylpropanoid ester
Class: CLASS3 Quinic acid
Formula: C26H26N0O12
Exact mass: 530.14 
Ion type: [M-H]-
Precursor m/z: 528.8
m/z	relative intensity
191	100
179.1	39
172.8	19
161	10
134.9	13
134	24
92.6	15
