Mass spectrum: 3-Acetoxy-5-hydroxy-1-(3,4-dihydroxyphenyl)-7-(3,4-dihydroxy-5-methoxyphenyl)heptane; MS2; QIT; [M-H]-; 32V
Name: 3-Acetoxy-5-hydroxy-1-(3,4-dihydroxyphenyl)-7-(3,4-dihydroxy-5-methoxyphenyl)heptane
Class: CLASS1 Other
Class: CLASS2 Alkane
Exact mass: no data
Ion type: [M-H]-
Precursor m/z: 491
m/z	relative intensity
431	100
371	100
476	100
416	100
356	100
449	100
389	100
