Mass spectrum: Acetyl oleoside 5; MS2; Q-TOF; [M+NH4]+; 15V
Name: Acetyl oleoside 5
Class: CLASS1 Other
Class: CLASS2 Other
Class: CLASS3 Other
Exact mass: no data
Ion type: [M+NH4]+
Precursor m/z: 426
m/z	relative intensity
4226.1908	3
409.1658	8
391.1881	3
247.115	33
229.1047	100
211.0975	15
197.0771	5
169.0862	6
155.0638	1
