Mass spectrum: Smyrnovinine; MS2; QIT; [M+H]+; 4.5V
Name: Smyrnovinine
Class: CLASS1 Alkaloid
Class: CLASS2 Polyamine
Class: CLASS3 Agmatine
Formula: C13H24N4O3
Exact mass: 284.18 
Ion type: [M+H]+
Precursor m/z: 285.1928
m/z	relative intensity
241.2027	95
199.1811	20
173.1394	45
156.1126	100
