Mass spectrum: Scutellarin-7-O-glucoside; MS2; QIT; [M-H]-; 40%
Name: Scutellarin-7-O-glucoside
Class: CLASS1 Flavonoid
Class: CLASS2 Flavone
Class: CLASS3 Scutellarin glycoside
Exact mass: no data
Ion type: [M-H]-
Precursor m/z: 447
m/z	relative intensity
447	100
285	57
284	12
