Mass spectrum: Apigenin 7-O-(malonyacetyl-glucoside); MS2; QqQ; [M+H]+; 18V
Name: Apigenin 7-O-(malonyacetyl-glucoside)
Class: CLASS1 Flavonoid
Class: CLASS2 Flavone
Class: CLASS3 Apigenin glycoside
Exact mass: no data
Ion type: [M+H]+
Precursor m/z: 561
m/z	relative intensity
271	100
475	6
