Mass spectrum: Daidzein; MS2; QqQ; [M+H]+; 27%
Name: Daidzein
Class: CLASS1 Flavonoid
Class: CLASS2 Isoflavone
Class: CLASS3 Daidzein
Formula: C15H10O4
Exact mass: 254.06 
Ion type: [M+H]+
Precursor m/z: 255
m/z	relative intensity
255	100
237	100
199	100
181	100
171	100
157	100
153	100
145	100
143	100
137	100
121	100
119	100
115	100
