Mass spectrum: Pelargonidin 3-glucoside; MS2; QIT; [M]+; n.d.
Name: Pelargonidin 3-glucoside
Class: CLASS1 Flavonoid
Class: CLASS2 Anthocyanin
Class: CLASS3 Pelargonidin glycoside
Formula: C21H21O10Cl1
Exact mass: 433.11 
Ion type: [M]+
Precursor m/z: 433
m/z	relative intensity
271.2	100
