Mass spectrum: Spermidine-caffeoyl-hydroxyferuloyl-sinapyl; MS2; Q-TOF; [M-H]-; 15->55V
Name: Spermidine-caffeoyl-hydroxyferuloyl-sinapyl
Class: CLASS1 Alkaloid
Class: CLASS2 Polyamine
Class: CLASS3 Spermidine
Exact mass: 0
Ion type: [M-H]-
Precursor m/z: 704.2793
m/z	relative intensity
704.2793	100
542.2439	3
538.2177	15
512.2477	5
388.1544	3
362.1761	4
165.0554	9
150.0311	3
