Mass spectrum: Procyanidin trimer B; MS2; QIT; [M+H]+; 35%
Name: Procyanidin trimer B
Class: CLASS1 Tannin
Class: CLASS2 Proanthocyanidin
Exact mass: no data
Ion type: [M+H]+
Precursor m/z: 867
m/z	relative intensity
577	100
715	100
697	100
409	100
