Mass spectrum: Quercetin-3-O-(4''-3-hydroxy-3-methylglutaroyl)-alpha-rhamnoside; MS2; QqQ; [M-H]-; 40V
Name: Quercetin-3-O-(4''-3-hydroxy-3-methylglutaroyl)-alpha-rhamnoside
Class: CLASS1 Flavonoid
Class: CLASS2 Flavonol
Class: CLASS3 Quercetin glycoside
Exact mass: no data
Ion type: [M-H]-
Precursor m/z: 591
m/z	relative intensity
591	100
529	100
489	100
447	100
301	100
300	100
