Mass spectrum: 8-Methylsulfinyl-n-octyl glucosinolate; MS2; Q-TOF; [M-H]-; 15->55V
Name: 8-Methylsulfinyl-n-octyl glucosinolate
Name: glucohirsutin
Class: CLASS1 Glucosinolate
Class: CLASS2 Aliphatic glucosinolate
Formula: C16H31N1O10S3
Exact mass: 493.1110092
Ion type: [M-H]-
Precursor m/z: 492.6401
m/z	relative intensity
492.6401	3
492.1069	100
428.106	24
284.7669	3
234.0819	9
96.9625	27
95.9546	32
74.9978	11
74.9873	3
