Mass spectrum: 3-Methylsulphinylpropyl glucosinolate; MS2; QIT; [M-H]-; 35
Name: 3-Methylsulphinylpropyl glucosinolate
Name: Glucoiberin
Class: CLASS1 Glucosinolate
Class: CLASS2 Aliphatic glucosinolate
Formula: C11H21N1O10S3
Exact mass: 423.03 
Ion type: [M-H]-
Precursor m/z: 422
m/z	relative intensity
407	100
358	100
275	100
259	100
