Mass spectrum: 4-Methylsulfinyl-3-butenyl glucosinolate; MS2; QIT; [M-H]-; 0.8V
Name: 4-Methylsulfinyl-3-butenyl glucosinolate
Name: Glucoraphenin
Class: CLASS1 Glucosinolate
Class: CLASS2 Aliphatic glucosinolate
Formula: C12H21N1O10S3
Exact mass: 435.03 
Ion type: [M-H]-
Precursor m/z: 434
m/z	relative intensity
419	38
370	3
354	15
341	3
301	5
291	13
275	19
259	100
256	12
241	14
195	17
192	24
179	1
163	3
139	9
129	31
