Mass spectrum: 4-Caffeoyl-2,7-anhydro-3-deoxy-2-ocutulopyranosonic acid; MS2; QIT; [M-H]-; 40%
Name: 4-Caffeoyl-2,7-anhydro-3-deoxy-2-ocutulopyranosonic acid
Class: CLASS1 Phenylpropanoid
Class: CLASS2 Phenylpropanoid ester
Class: CLASS3 Other
Exact mass: no data
Ion type: [M-H]-
Precursor m/z: 381
m/z	relative intensity
381	8
363	15
337	12
293	42
275	3
251	52
245	1
221	9
219	8
203	13
179	51
161	100
135	7
