Mass spectrum: Sinapoylcholine 4-O-hexoside; MS2; Q-TOF; [M+H]+; 15->55V
Name: Sinapoylcholine 4-O-hexoside
Name: 4-Hexosyloxy-3,5-dimethoxy-cinnamoylcholine
Class: CLASS1 Phenylpropanoid
Class: CLASS2 Phenylpropanoid ester
Class: CLASS3 Choline
Exact mass: 0
Ion type: [M+H]+
Precursor m/z: 472.2154
m/z	relative intensity
472.2154	37
252.0955	3
251.0909	100
207.0653	13
175.0411	17
147.042	6
119.0481	5
