Mass spectrum: Guaiasylglycerol-beta-feruloyl ether-malonyl-isomer; MS2; Q-TOF; [M-H]-; 15->55V
Name: Guaiasylglycerol-beta-feruloyl ether-malonyl-isomer
Name: F(4-O-b)G-hexoside-malonyl-isomer
Class: CLASS1 Phenylpropanoid
Class: CLASS2 Lignan
Class: CLASS3 Guaiasylglycerol-feruloyl ether
Exact mass: 0
Ion type: [M-H]-
Precursor m/z: 667.1849
m/z	relative intensity
667.1849	85
665.0709	12
575.0187	3
551.1785	100
521.0361	7
505.0403	10
389.1267	23
342.9709	3
341.1013	8
195.0645	17
193.0513	89
178.0338	7
165.0578	23
151.0366	5
134.0372	9
71.0158	3
