Mass spectrum: Licochalcone B; MS2; QIT; [M+H]+; 35%
Name: Licochalcone B
Name: 2-Propen-1-one, 3-(3,4-dihydroxy-2-methoxyphenyl)-1-(4-hydroxyphenyl)-, (2E)-
Class: CLASS1 Flavonoid
Class: CLASS2 Chalcone
Formula: C16H14O5
Exact mass: 286.08 
Ion type: [M+H]+
Precursor m/z: 287
m/z	relative intensity
245	100
193	10
167	7
147	7
121	6
