Mass spectrum: Germanidin; MS2; QIT; [M+H]+; 0.6V
Name: Germanidin
Class: CLASS1 Alkaloid
Class: CLASS2 Steroid
Class: CLASS3 Germanidin
Formula: C37H57N1O10
Exact mass: 675.40 
Ion type: [M+H]+
Precursor m/z: 676.8
m/z	relative intensity
658.6	100
558.4	100
456.4	100
438.3	100
420.3	100
