Mass spectrum: 6-Hydroxyapigenin; MS2; QIT; [M-H]-; 40%
Name: 6-Hydroxyapigenin
Name: Scutellarein
Class: CLASS1 Flavonoid
Class: CLASS2 Flavone
Class: CLASS3 Apigenin glycoside
Formula: C15H10O6
Exact mass: 286.05 
Ion type: [M-H]-
Precursor m/z: 285
m/z	relative intensity
285	100
267	39
241	8
239	22
213	10
195	2
173	2
165	2
119	3
