Mass spectrum: Quercetin-hexoside-di-rhamnoside; MS2; Q-TOF; [M+H]+; 15->55V
Name: Quercetin-hexoside-di-rhamnoside
Class: CLASS1 Flavonoid
Class: CLASS2 Flavonol
Class: CLASS3 Quercetin glycoside
Exact mass: 0
Ion type: [M+H]+
Precursor m/z: 757.2175
m/z	relative intensity
757.2175	32
611.1384	13
595.1557	8
449.1016	29
433.1171	18
432.934	14
303.0436	78
287.0515	100
85.0263	14
