Mass spectrum: Paeonilactone B; MS2; Q-TOF; [M-H]-; 20->80V
Name: Paeonilactone B
Class: CLASS1 Other
Class: CLASS2 Benzoic acid
Class: CLASS3 Paeonilactone
Formula: C10H12O4
Exact mass: 196.07 
Ion type: [M-H]-
Precursor m/z: 195
m/z	relative intensity
177	100
149	100
137	100
123	100
107	100
87	100
59	100
