Mass spectrum: Theophylline; MS2; QqQ; [M-H]-; 60V
Name: Theophylline
Name: 1H-Purine-2,6-dione, 3,9-dihydro-1,3-dimethyl-
Class: CLASS1 Alkaloid
Class: CLASS2 Xanthine
Class: CLASS3 Theophylline
Formula: C7H8N4O2
Exact mass: 180.06 
Ion type: [M-H]-
Precursor m/z: 178.8
m/z	relative intensity
178.9	100
163.9	66
134.8	50
121.7	86
106.7	32
93.6	80
78.6	62
65.7	33
