Mass spectrum: Guaiasylglycerol-beta-feruloyl ether-malonyl-isomer; MS2; Q-TOF; [M-H]-; 15->55V
Name: Guaiasylglycerol-beta-feruloyl ether-malonyl-isomer
Name: F(4-O-b)G-malonyl-isomer
Class: CLASS1 Phenylpropanoid
Class: CLASS2 Lignan
Class: CLASS3 Guaiasylglycerol-feruloyl ether
Exact mass: 0
Ion type: [M-H]-
Precursor m/z: 505.1355
m/z	relative intensity
505.1355	23
389.1249	100
341.1017	40
282.0856	6
250.0599	3
195.0636	22
193.0501	60
178.0242	9
165.0528	28
164.0465	3
151.0395	3
150.0294	23
149.0548	7
149.0258	6
134.0361	23
133.0146	3
115.0057	4
71.0118	4
