Mass spectrum: Forsythoside B; MS2; QIT; [M-H]-; 45%
Name: Forsythoside B
Class: CLASS1 Phenylpropanoid
Class: CLASS2 Phenylpropanoid glycoside
Class: CLASS3 Forsythoside
Formula: C34H44O19
Exact mass: 756.25 
Ion type: [M-H]-
Precursor m/z: 755
m/z	relative intensity
755	100
623	1
593	100
461	1
447	1
