Mass spectrum: 3-hydroxy-glabrol; MS2; QIT; [M-H]-; 35%
Name: 3-hydroxy-glabrol
Name: 4H-1-Benzopyran-4-one, 2,3-dihydro-3,7-dihydroxy-2-[4-hydroxy-3-(3-methyl-2-buten-1-yl)phenyl]-8-(3-methyl-2-buten-1-yl)-, (2R,3R)-
Class: CLASS1 Flavonoid
Class: CLASS2 Isoflavane
Formula: C25H28O5
Exact mass: 408.19 
Ion type: [M-H]-
Precursor m/z: 407
m/z	relative intensity
203	100
221	3
159	2
