Mass spectrum: Proanthocyanidin A; MS2; QqQ; [M-H]-; 40V
Name: Proanthocyanidin A
Class: CLASS1 Tannin
Class: CLASS2 Proanthocyanidin
Formula: C31H28O12
Exact mass: 592.16 
Ion type: [M-H]-
Precursor m/z: 575
m/z	relative intensity
575	100
539	100
449	100
407	100
289	100
285	100
