Mass spectrum: Glabrene; MS2; QIT; [M-H]-; 35%
Name: Glabrene
Name: [3,8'-Bi-2H-1-benzopyran]-5',7-diol, 2',2'-dimethyl-
Class: CLASS1 Flavonoid
Class: CLASS2 Isoflavene
Formula: C20H18O4
Exact mass: 322.12 
Ion type: [M-H]-
Precursor m/z: 321
m/z	relative intensity
306	100
303	27
293	18
277	27
175	18
145	14
