Mass spectrum: Kaemoferol 5-Glc-Rha; MS2; QIT; [M-H]-; 60V
Name: Kaemoferol 5-Glc-Rha
Class: CLASS1 Other
Class: CLASS2 Other
Class: CLASS3 Other
Formula: C27H30O15
Exact mass: 594.16 
Ion type: [M-H]-
Precursor m/z: 593
m/z	relative intensity
431	100
285	100
