Mass spectrum: Theophylline; MS2; QqQ; [M+H]+; 15eV
Name: Theophylline
Name: 1H-Purine-2,6-dione, 3,9-dihydro-1,3-dimethyl-
Class: CLASS1 Alkaloid
Class: CLASS2 Xanthine
Class: CLASS3 Theophylline
Formula: C7H8N4O2
Exact mass: 180.06 
Ion type: [M+H]+
Precursor m/z: 180.8
m/z	relative intensity
180.9	94
123.8	100
95.7	20
68.5	11
