Mass spectrum: Cotinine; MS2; QIT; [M+H]+; 25%
Name: Cotinine
Class: CLASS1 Alkaloid
Class: CLASS2 Nicotine
Class: CLASS3 Cotinine
Formula: C10H12N2O1
Exact mass: 176.09 
Ion type: [M+H]+
Precursor m/z: 177
m/z	relative intensity
177	100
146	100
98	100
80	100
