Mass spectrum: 1-Methoxyindol-3-ylmethyl glucosinolate; MS2; Q-TOF; [M+H]+; 15->55V
Name: 1-Methoxyindol-3-ylmethyl glucosinolate
Class: CLASS1 Glucosinolate
Class: CLASS2 Indole glucosinolate
Formula: C17H22N2O10S2
Exact mass: 478.0715869
Ion type: [M+H]+
Precursor m/z: 535
m/z	relative intensity
535	25
455.0473	100
292.9922	10
260.9704	7
204.0035	14
186.9905	7
160.0811	42
130.0665	15
