Mass spectrum: Cyanidin 3-(sinapoyl-feruloyl)-diglucoside-5-glucoside; MS2; QIT; [M]+; n.d.
Name: Cyanidin 3-(sinapoyl-feruloyl)-diglucoside-5-glucoside
Class: CLASS1 Flavonoid
Class: CLASS2 Anthocyanin
Class: CLASS3 Cyanidin glycoside
Exact mass: no data
Ion type: [M]+
Precursor m/z: 1155.1
m/z	relative intensity
993.1	100
449	100
