Mass spectrum: Isorhamnetin-3,7-dirhamnoside; MS2; Q-TOF; [M+H]+; 15->55V
Name: Isorhamnetin-3,7-dirhamnoside
Class: CLASS1 Flavonoid
Class: CLASS2 Flavonol
Class: CLASS3 Isorhamnetin glycoside
Exact mass: 0
Ion type: [M+H]+
Precursor m/z: 609.1791
m/z	relative intensity
609.1791	24
464.1212	4
463.1188	92
318.0671	5
317.0619	100
302.0446	4
129.0527	5
85.025	10
71.0461	6
