Mass spectrum: Cyanidin 3-O-[2-O-(beta-xylosyl)-beta-galactoside] ; MS2; QIT; [M]+; 39V
Name: Cyanidin 3-O-[2-O-(beta-xylosyl)-beta-galactoside]
Class: CLASS1 Flavonoid
Class: CLASS2 Anthocyanin
Class: CLASS3 Cyanidin glycoside
Exact mass: no data
Ion type: [M]+
Precursor m/z: 581
m/z	relative intensity
287	100
