Mass spectrum: Glaucogenin C-O-beta-D-thevetoside; MS2; QIT; [M+Na]+; 0.6–>1.0V
Name: Glaucogenin C-O-beta-D-thevetoside
Class: CLASS1 Other
Class: CLASS2 Other
Class: CLASS3 Other
Formula: C28H40O9
Exact mass: 520.27 
Ion type: [M+Na]+
Precursor m/z: 543
m/z	relative intensity
497	100
