Mass spectrum: [6]-Gingerol; MS2; QIT; [M-H]-; 4.5V
Name: [6]-Gingerol
Class: CLASS1 Other
Class: CLASS2 Phenol
Class: CLASS3 Gingerol
Formula: C17H26O4
Exact mass: 294.18 
Ion type: [M-H]-
Precursor m/z: 293.5
m/z	relative intensity
293.5	3
275.3	3
193.2	100
178.7	3
99.7	10
