Mass spectrum: Isonicotinic acid; MS2; Q-TOF; [M+H]+; 15->55V
Name: Isonicotinic acid
Class: CLASS1 Other
Class: CLASS2 Vitamine
Formula: C6H5N1O2
Exact mass: 123.0320284
Ion type: [M+H]+
Precursor m/z: 124.0382
m/z	relative intensity
124.0382	100
106.0272	5
80.0487	23
78.034	19
