Mass spectrum: Ginsenoside Rg2; MS2; QIT; [M-H]-; 50%
Name: Ginsenoside Rg2
Name: Prosapogenin C2
Class: CLASS1 Terpenoid
Class: CLASS2 Triterpenoid
Class: CLASS3 Ginsenoside
Formula: C42H72O13
Exact mass: 784.50 
Ion type: [M-H]-
Precursor m/z: 785.03
m/z	relative intensity
784.2	100
638.5	44
9.7	100
475.7	31
