Mass spectrum: Genistein; MS2; QqQ; [M+H]+; 30V
Name: Genistein
Class: CLASS1 Flavonoid
Class: CLASS2 Isoflavone
Class: CLASS3 Genistein
Formula: C15H10O5
Exact mass: 270.05 
Ion type: [M+H]+
Precursor m/z: 271
m/z	relative intensity
271	100
