Mass spectrum: 4-Benzoyloxy-n-butyl glucosinolate; MS2; Q-TOF; [M-H]-; 15->55V
Name: 4-Benzoyloxy-n-butyl glucosinolate
Class: CLASS1 Glucosinolate
Class: CLASS2 Benzyl glucosinolate
Formula: C18H25N1O11S2
Exact mass: 495.0869026
Ion type: [M-H]-
Precursor m/z: 494.0772
m/z	relative intensity
494.0772	100
259.0182	3
96.96	49
95.9532	16
79.9588	3
74.9915	10
