Mass spectrum: sn-Glycero-3-phosphocholine; MS2; Q-TOF; [M+H]+; 15->55V
Name: sn-Glycero-3-phosphocholine
Class: CLASS1 Other
Class: CLASS2 Other
Class: CLASS3 Other
Exact mass: 0
Ion type: [M+H]+
Precursor m/z: 258.11
m/z	relative intensity
258.11	35
184.0752	8
166.0614	3
125	28
104.1066	100
98.9845	7
86.0959	20
