Mass spectrum: Bergapten; MS2; QIT; [M+H]+; 13->37%
Name: Bergapten
Name: 5-Methoxy-6,7-furanocoumarin
Class: CLASS1 Phenylpropanoid
Class: CLASS2 Coumarin
Class: CLASS3 Bergapten
Formula: C12H8O4
Exact mass: 216.04 
Ion type: [M+H]+
Precursor m/z: 217
m/z	relative intensity
217	50
202	100
