Mass spectrum: Stepharanine; MS2; QIT; [M+H]+; 25V
Name: Stepharanine
Class: CLASS1 Alkaloid
Class: CLASS2 Benzylisoquinoline
Class: CLASS3 Stepharanine
Formula: C19H18N1O4
Exact mass: 324.12 
Ion type: [M+H]+
Precursor m/z: 324
m/z	relative intensity
324	64
309	100
