Mass spectrum: Dehydrotanshinone IIA sulfonate; MS2; QIT; [M-Na]-; 45->60%
Name: Dehydrotanshinone IIA sulfonate
Class: CLASS1 Terpenoid
Class: CLASS2 Diterpenoid
Class: CLASS3 Tanshinone
Exact mass: no data
Ion type: [M-Na]-
Precursor m/z: 371
m/z	relative intensity
371	5
355	100
307	64
291	55
279	5
251	2
