Mass spectrum: Vitisin A; MS2; QqQ; [M]+; n.d.
Name: Vitisin A
Class: CLASS1 Flavonoid
Class: CLASS2 Anthocyanin
Class: CLASS3 Other
Formula: C26H25O14
Exact mass: 561.12 
Ion type: [M]+
Precursor m/z: 561
m/z	relative intensity
561	50
399	100
317	100
