Mass spectrum: Cyclo(Tyr-Leu); MS2; QIT; [M+H]+; 35%
Name: Cyclo(Tyr-Leu)
Class: CLASS1 Amino acid
Class: CLASS2 Peptide
Class: CLASS3 Cyclopeptide
Formula: C15H20N2O3
Exact mass: 276.15 
Ion type: [M+H]+
Precursor m/z: 277
m/z	relative intensity
277	42
249	26
232	12
204	12
171	2
147	3
136	100
119	4
114	3
107	22
86	20
72	2
