Mass spectrum: Isohylocerenin; MS2; QIT; [M+H]+; 25->30%
Name: Isohylocerenin
Class: CLASS1 Alkaloid
Class: CLASS2 Betalain
Class: CLASS3 Isohylocerenin
Formula: C30H34N2O17
Exact mass: 694.19 
Ion type: [M+H]+
Precursor m/z: 695
m/z	relative intensity
695	100
651	5
551	7
389	100
