Mass spectrum: Guaiasylglycerol-beta-sinapoylcholine ether; MS2; Q-TOF; [M+H]+; 15->55V
Name: Guaiasylglycerol-beta-sinapoylcholine ether
Name: SC(4-O-b)G
Class: CLASS1 Phenylpropanoid
Class: CLASS2 Lignan
Class: CLASS3 Sinapoylcholine-guaiasyl ester
Exact mass: 0
Ion type: [M+H]+
Precursor m/z: 506.2355
m/z	relative intensity
506.2355	50
447.1647	8
251.0898	100
207.0642	9
175.0398	14
147.0441	5
119.0491	5
