Mass spectrum: Cynanversicoside C; MS2; QIT; [M+Na]+; 0.6–>1.0V
Name: Cynanversicoside C
Class: CLASS1 Terpenoid
Class: CLASS2 Triterpenoid
Class: CLASS3 Cynanversicoside
Formula: C28H40O10
Exact mass: 536.26 
Ion type: [M+Na]+
Precursor m/z: 559
m/z	relative intensity
513	100
