Mass spectrum: Di-Coumaroyl hexose; MS2; Q-TOF; [M+Na]+; 20V
Name: Di-Coumaroyl hexose
Class: CLASS1 Phenylpropanoid
Class: CLASS2 Phenylpropanoid glycoside
Class: CLASS3 Coumaroyl glycoside
Formula: C24H24O10
Exact mass: 472.14 
Ion type: [M+Na]+
Precursor m/z: 472.1369
m/z	relative intensity
495.1288	100
309.0998	100
291.0887	100
147.0451	100
