Mass spectrum: Kinetin riboside; MS2; QIT; [M+H]+; n.d.
Name: Kinetin riboside
Name: 6-Furfuryladenosine
Class: CLASS1 Other
Class: CLASS2 Other
Class: CLASS3 Kinetin glycoside
Formula: C15H17N5O5
Exact mass: 347.12 
Ion type: [M+H]+
Precursor m/z: 348.2
m/z	relative intensity
348.2	6
216.2	100
148.1	14
