Mass spectrum: Cyptotanshinone; MS2; QIT; [M+H]+; 40%
Name: Cyptotanshinone
Name: Phenanthro[1,2-b]furan-10,11-dione, 1,2,6,7,8,9-hexahydro-1,6,6-trimethyl-, (1R)-
Class: CLASS1 Terpenoid
Class: CLASS2 Diterpenoid
Class: CLASS3 tanshinone
Formula: C19H20O3
Exact mass: 296.14 
Ion type: [M+H]+
Precursor m/z: 297
m/z	relative intensity
279	100
269	20
255	5
251	80
237	7
227	4
