Mass spectrum: Gluconapin; MS2; QIT; [M-H]-; 30->35%
Name: Gluconapin
Class: CLASS1 Glucosinolate
Class: CLASS2 Aliphatic glucosinolate
Formula: C11H19N1O9S2
Exact mass: 373.05 
Ion type: [M-H]-
Precursor m/z: 372
m/z	relative intensity
372	100
292	100
275	100
259	100
241	100
227	100
195	100
