Mass spectrum: 4-Methylsuphinylbutyl glucosinolate; MS2; QIT; [M-H]-; 35
Name: 4-Methylsuphinylbutyl glucosinolate
Name: Glucoraphanin
Class: CLASS1 Glucosinolate
Class: CLASS2 Aliphatic glucosinolate
Formula: C12H23N1O10S3
Exact mass: 437.05 
Ion type: [M-H]-
Precursor m/z: 436
m/z	relative intensity
372	100
259	100
