Mass spectrum: Kaempferol-3-sophoroside-7-glucoside-O-methoxy-caffeoyl; MS2; QIT; [M-H]-; 35V
Name: Kaempferol-3-sophoroside-7-glucoside-O-methoxy-caffeoyl
Class: CLASS1 Flavonoid
Class: CLASS2 Flavonol
Class: CLASS3 Kaempferol glycoside
Exact mass: no data
Ion type: [M-H]-
Precursor m/z: 963
m/z	relative intensity
801	100
609	100
447	35
489	8
429	100
285	95
