Mass spectrum: Hedysarimbenzofuran B; MS2; QIT; [M-H]-; 48%
Name: Hedysarimbenzofuran B
Class: CLASS1 Phenylpropanoid
Class: CLASS2 Coumestan
Class: CLASS3 Hedysarimcoumestan
Formula: C17H14O7
Exact mass: 330.07 
Ion type: [M-H]-
Precursor m/z: 329
m/z	relative intensity
314	13
313	6
301	100
286	14
231	11
