Mass spectrum: Cyanidin 3-glucosylrutinoside; MS2; QIT; [M]+; 25.4V
Name: Cyanidin 3-glucosylrutinoside
Class: CLASS1 Flavonoid
Class: CLASS2 Anthocyanin
Class: CLASS3 Cyanidin glycoside
Formula: C33H41O20Cl1
Exact mass: 757.22 
Ion type: [M]+
Precursor m/z: 757
m/z	relative intensity
757	100
287	100
