Mass spectrum: Fertaric acid; MS2; QqQ; [M-H]-; n.d.
Name: Fertaric acid
Class: CLASS1 Other
Class: CLASS2 Other
Class: CLASS3 Other
Formula: C14H14O9
Exact mass: 326.06 
Ion type: [M-H]-
Precursor m/z: 325
m/z	relative intensity
325	50
193	100
133	100
87	100
