Mass spectrum: Guaiasylglycerol-beta-feruloyl ether-hexoside; MS2; Q-TOF; [M-H]-; 15->55V
Name: Guaiasylglycerol-beta-feruloyl ether-hexoside
Name: F(4-O-b)G-hexoside
Class: CLASS1 Phenylpropanoid
Class: CLASS2 Lignan
Class: CLASS3 Guaiasylglycerol-feruloyl ether
Exact mass: 0
Ion type: [M-H]-
Precursor m/z: 551.1775
m/z	relative intensity
551.1775	75
389.1294	50
341.1015	23
282.1063	4
195.0695	20
193.0504	100
178.0254	30
165.056	48
151.0395	3
150.0286	16
149.0579	20
149.0212	3
134.039	45
