Mass spectrum: Glycitein-hexosiyl-malonyl; MS2; QqQ; [M+H]+; 30V
Name: Glycitein-hexosiyl-malonyl
Class: CLASS1 Flavonoid
Class: CLASS2 Isoflavone
Class: CLASS3 Genistein glycoside
Exact mass: no data
Ion type: [M+H]+
Precursor m/z: 533
m/z	relative intensity
533	100
285	100
