Mass spectrum: Putative glucosinolate; MS2; Q-TOF; [M-H]-; 15->55V
Name: Putative glucosinolate
Class: CLASS1 Glucosinolate
Class: CLASS2 Aliphatic glucosinolate
Exact mass: no data
Ion type: [M-H]-
Precursor m/z: 524.0758
m/z	relative intensity
524.0758	100
121.0322	32
96.961	41
95.9527	19
74.993	4
