Mass spectrum: Spermidine-feruloyl-sinapyl; MS2; Q-TOF; [M+H]+; 15->55V
Name: Spermidine-feruloyl-sinapyl
Class: CLASS1 Alkaloid
Class: CLASS2 Polyamine
Class: CLASS3 Spermidine
Exact mass: 0
Ion type: [M+H]+
Precursor m/z: 529.257
m/z	relative intensity
529.257	7
529.1302	9
528.2719	100
382.0164	6
352.2089	6
340.9675	15
322.2196	7
264.1158	6
234.1076	7
207.0572	10
177.048	18
175.0293	6
