Mass spectrum: Hoodigoside F; MS2; QIT; [M+Na]+; 30->45%
Name: Hoodigoside F
Class: CLASS1 Terpenoid
Class: CLASS2 Triterpenoid
Class: CLASS3 Hoodigoside
Formula: C60H96O23
Exact mass: 1184.63 
Ion type: [M+Na]+
Precursor m/z: 1207.6273
m/z	relative intensity
1167	100
1067	100
1005	100
905	100
861	100
761	100
701	100
601	100
557	100
457	100
413	100
313	100
295	100
