Mass spectrum: Mudanpioside D; MS2; Q-TOF; [M-H]-; 20->80V
Name: Mudanpioside D
Class: CLASS1 Other
Class: CLASS2 Benzoic acid
Class: CLASS3 Mudanosid
Formula: C24H30O12
Exact mass: 510.17 
Ion type: [M-H]-
Precursor m/z: 509
m/z	relative intensity
479	100
461	100
357	100
327	100
309	100
165	100
151	100
