Mass spectrum: Katchimoside; MS2; QIT; [M-H]-; 55V
Name: Katchimoside
Class: CLASS1 Flavonoid
Class: CLASS2 Flavone
Class: CLASS3 Cachimoside
Formula: C26H28O14
Exact mass: 564.15 
Ion type: [M-H]-
Precursor m/z: 565
m/z	relative intensity
565.1	9
444.9	3
434	15
433	100
415	24
397	5
366.9	4
337	2
313.1	9
271	1
