Mass spectrum: Propelargonidin dimer; MS2; Q-TOF; [M-H]-; 20V
Name: Propelargonidin dimer
Class: CLASS1 Tannin
Class: CLASS2 Proanthocyanidin
Formula: C30H26O11
Exact mass: 562.15 
Ion type: [M-H]-
Precursor m/z: 562.1475
m/z	relative intensity
561.1413	100
289.0691	100
245.0871	100
