Mass spectrum: p-Coumaric acid; MS2; QqQ; [M+H]+; 30eV
Name: p-Coumaric acid
Name: 2-Propenoic acid, 3-(4-hydroxyphenyl)-
Class: CLASS1 Phenylpropanoid
Class: CLASS2 Phenylpropanoid monomer
Class: CLASS3 p-coumaric acid
Formula: C9H8O3
Exact mass: 164.05 
Ion type: [M+H]+
Precursor m/z: 164.8
m/z	relative intensity
146.8	10
118.7	34
90.7	100
64.5	52
