Mass spectrum: Kaemoferol 5-Xyl(1,2)Glc; MS2; QIT; [M-H]-; 60V
Name: Kaemoferol 5-Xyl(1,2)Glc
Class: CLASS1 Flavonoid
Class: CLASS2 Flavonol
Class: CLASS3 Kaempferol glycoside
Formula: C26H28O15
Exact mass: 580.14 
Ion type: [M-H]-
Precursor m/z: 579
m/z	relative intensity
447	100
285	100
