Mass spectrum: Sinapoylcholine dimer-isomer; MS2; Q-TOF; [M+H]+; 15->55V
Name: Sinapoylcholine dimer-isomer
Class: CLASS1 Phenylpropanoid
Class: CLASS2 Lignan
Class: CLASS3 Sinapoylcholine dimer
Exact mass: 0
Ion type: [M+H]+
Precursor m/z: 310.1627
m/z	relative intensity
310.1627	22
251.0918	100
207.0646	11
175.0384	23
164.047	3
147.044	13
119.0494	15
91.0546	14
