Mass spectrum: Cyanidin-3-sophoroside; MS2; QIT; [M]+; 45%
Name: Cyanidin-3-sophoroside
Class: CLASS1 Flavonoid
Class: CLASS2 Anthocyanin
Class: CLASS3 Cyanidin glycoside
Formula: C27H31S16Cl1
Exact mass: 866.80 
Ion type: [M]+
Precursor m/z: 611.1
m/z	relative intensity
287.2	100
