Mass spectrum: Papaverrubine 2; MS2; QIT; [M+H]+; 20->40V
Name: Papaverrubine 2
Class: CLASS1 Alkaloid
Class: CLASS2 Papaverrubine
Class: CLASS3 Papaverrubine
Formula: C21H23N1O6
Exact mass: 385.15 
Ion type: [M+H]+
Precursor m/z: 386
m/z	relative intensity
386	48
368	20
206	100
