Mass spectrum: Caffeic acid; MS2; in source CID; [M+H]+; 15V
Name: Caffeic acid
Name: 2-Propenoic acid, 3-(3,4-dihydroxyphenyl)-
Class: CLASS1 Phenylpropanoid
Class: CLASS2 Phenylpropanoid monomer
Class: CLASS3 caffeic acid
Formula: C9H8N0O4
Exact mass: 180.04 
Ion type: [M+H]+
Precursor m/z: 180.8
m/z	relative intensity
180.8	100
162.8	73
