Mass spectrum: Monodydroxytanshinone I; MS2; QIT; [M+H]+; 40%
Name: Monodydroxytanshinone I
Name: Phenanthro[1,2-b]furan-10,11-dione, 7-hydroxy-1,6-dimethyl-
Class: CLASS1 Terpenoid
Class: CLASS2 Diterpenoid
Class: CLASS3 tanshinone
Formula: C18H12O4
Exact mass: 292.07 
Ion type: [M+H]+
Precursor m/z: 293
m/z	relative intensity
275	18
265	100
237	13
