Mass spectrum: Spermidine-dihydroxyferuloyl-sinapyl; MS2; Q-TOF; [M+H]+; 15->55V
Name: Spermidine-dihydroxyferuloyl-sinapyl
Class: CLASS1 Alkaloid
Class: CLASS2 Polyamine
Class: CLASS3 Spermidine
Exact mass: 0
Ion type: [M+H]+
Precursor m/z: 736.3149
m/z	relative intensity
736.3149	66
545.2817	3
544.2723	100
530.2597	5
527.2513	3
526.2621	19
352.2268	12
338.2115	11
321.1849	8
278.1436	3
264.1294	4
250.1111	39
207.0677	30
193.0525	28
175.0402	14
161.026	12
133.0287	5
119.0496	3
