Mass spectrum: Luteolin 7-O-rutinoside; MS2; QqQ; [M-H]-; 50V
Name: Luteolin 7-O-rutinoside
Class: CLASS1 Flavonoid
Class: CLASS2 Flavone
Class: CLASS3 Luteolin glycoside
Formula: C27H30O15
Exact mass: 594.16 
Ion type: [M-H]-
Precursor m/z: 593
m/z	relative intensity
593	100
285	100
