Mass spectrum: Caffeic acid; MS2; QqQ; [M-H]-; 40eV
Name: Caffeic acid
Name: 2-Propenoic acid, 3-(3,4-dihydroxyphenyl)-
Class: CLASS1 Phenylpropanoid
Class: CLASS2 Phenylpropanoid monomer
Class: CLASS3 caffeic acid
Formula: C9H8N0O4
Exact mass: 180.04 
Ion type: [M-H]-
Precursor m/z: 178.9
m/z	relative intensity
178.9	23
135.8	17
134.9	62
134.1	100
133.3	55
88.7	36
