Mass spectrum: Ebenfuran II; MS2; QIT; [M-H]-; 48%
Name: Ebenfuran II
Class: CLASS1 Other
Class: CLASS2 Other
Class: CLASS3 Other
Formula: C16H12O6
Exact mass: 300.06 
Ion type: [M-H]-
Precursor m/z: 299
m/z	relative intensity
285	10
271	100
255	11
