Mass spectrum: Protocatechuic acid; MS2; QqQ; [M-H]-; n.d.
Name: Protocatechuic acid
Name: Benzoic acid, 3,4-dihydroxy-
Class: CLASS1 Other
Class: CLASS2 Benzoic acid
Class: CLASS3 Protocatechoic acid
Formula: C7H6O4
Exact mass: 154.03 
Ion type: [M-H]-
Precursor m/z: 153
m/z	relative intensity
153	50
125	100
107	100
109	100
83	100
69	100
