Mass spectrum: Dehydrotanshinone IIA; MS2; QIT; [M+H]+; 45->60%
Name: Dehydrotanshinone IIA
Class: CLASS1 Terpenoid
Class: CLASS2 Diterpenoid
Class: CLASS3 Tanshinone
Formula: C19H16O3
Exact mass: 292.11 
Ion type: [M+H]+
Precursor m/z: 293
m/z	relative intensity
275	100
265	8
247	28
