Mass spectrum: Coumaric acid glucoside; MS2; QqQ; [M-H]-; n.d.
Name: Coumaric acid glucoside
Class: CLASS1 Phenylpropanoid
Class: CLASS2 Phenylpropanoid glycoside
Class: CLASS3 Coumaroyl glycoside
Formula: C15H17O8
Exact mass: 325.09 
Ion type: [M-H]-
Precursor m/z: 325
m/z	relative intensity
325	50
265	100
205	100
163	100
145	100
119	100
