Mass spectrum: trans-Melilotoside; MS2; QIT; [M+H]+; 35%
Name: trans-Melilotoside
Name: 2-Propenoic acid, 3-[2-(.beta.-D-glucopyranosyloxy)phenyl]-, (2E)-
Class: CLASS1 Phenylpropanoid
Class: CLASS2 Phenylpropanoid glycoside
Class: CLASS3 Melilotoside
Formula: C15H18O8
Exact mass: 326.10 
Ion type: [M+H]+
Precursor m/z: 327
m/z	relative intensity
327	2
165	100
147	28
308.8	7
