Mass spectrum: Spermidine-disinapyl; MS2; Q-TOF; [M+H]+; 15->55V
Name: Spermidine-disinapyl
Class: CLASS1 Alkaloid
Class: CLASS2 Polyamine
Class: CLASS3 Spermidine
Exact mass: 0
Ion type: [M+H]+
Precursor m/z: 559.2778
m/z	relative intensity
559.2778	9
558.2699	100
352.2205	15
264.1216	14
208.0651	3
207.0612	21
175.0326	11
147.0419	5
