Mass spectrum: 4-Caffeoyl-5-p-coumaroylquinic acids; MS2; QqQ; [M-H]-; 40eV
Name: 4-Caffeoyl-5-p-coumaroylquinic acids
Name: Cyclohexanecarboxylic acid, 4-[[3-(3,4-dihydroxyphenyl)-1-oxo-2-propen-1-yl]oxy]-1,3-dihydroxy-5-[[3-(4-hydroxyphenyl)-1-oxo-2-propen-1-yl]oxy]-, (1R,3R,4S,5R)-
Class: CLASS1 Phenylpropanoid
Class: CLASS2 Phenylpropanoid ester
Class: CLASS3 Quinic acid
Formula: C25H24N0O11
Exact mass: 500.13 
Ion type: [M-H]-
Precursor m/z: 498.7
m/z	relative intensity
190.8	55
178.9	100
173.3	80
134.9	40
