Mass spectrum: Hoodigoside K; MS2; QIT; [M+Na]+; 30->45%
Name: Hoodigoside K
Class: CLASS1 Terpenoid
Class: CLASS2 Triterpenoid
Class: CLASS3 Hoodigoside
Formula: C45H70O18
Exact mass: 898.46 
Ion type: [M+Na]+
Precursor m/z: 921.4463
m/z	relative intensity
881	100
781	100
719	100
619	100
557	100
447	100
413	100
313	100
295	100
