Mass spectrum: Butenyl glucosinolate, putative; MS2; Q-TOF; [M-H]-; 15->55V
Name: Butenyl glucosinolate, putative
Class: CLASS1 Glucosinolate
Class: CLASS2 Aliphatic glucosinolate
Exact mass: 0
Ion type: [M-H]-
Precursor m/z: 372.04
m/z	relative intensity
372.04	100
195.0309	3
96.9589	61
95.951	34
79.9573	7
74.9911	41
