Mass spectrum: Malvidin 3-O-rutinoside; MS2; QIT; [M]+; 45%
Name: Malvidin 3-O-rutinoside
Class: CLASS1 Flavonoid
Class: CLASS2 Anthocyanin
Class: CLASS3 Malvidin glycoside
Formula: C29H35O16Cl1
Exact mass: 639.19 
Ion type: [M]+
Precursor m/z: 639.1
m/z	relative intensity
331.1	100
492.9	100
