Mass spectrum: 7-Tigloylplatynecine; MS2; QqQ; [M+H]+; 41V
Name: 7-Tigloylplatynecine
Class: CLASS1 Alkaloid
Class: CLASS2 Pyrrolizidine
Class: CLASS3 Platynecine
Formula: C13H21N1O3
Exact mass: 239.15 
Ion type: [M+H]+
Precursor m/z: 240
m/z	relative intensity
240	100
122	100
140	100
