Mass spectrum: penta-Galloyl-b-D-glucopyranose; MS2; QIT-TOF; [M+K-H2O]+; nd
Name: penta-Galloyl-b-D-glucopyranose
Name: .beta.-D-Glucopyranose, 1,2,3,4,6-pentakis(3,4,5-trihydroxybenzoate)
Class: CLASS1 Tannin
Class: CLASS2 Gallotannin
Class: CLASS3 Galloyl glycoside
Formula: C41H32O26
Exact mass: 940.00 
Ion type: [M+K-H2O]+
Precursor m/z: 961
m/z	relative intensity
100	809
100	791
100	657
100	639
100	621
100	487
100	469
100	0
