Mass spectrum: Kaempferol 3-rutinoside; MS2; QIT; [M+H]+; n.d.
Name: Kaempferol 3-rutinoside
Class: CLASS1 Flavonoid
Class: CLASS2 Flavonol
Class: CLASS3 Kaempferol glycoside
Exact mass: no data
Ion type: [M+H]+
Precursor m/z: 595
m/z	relative intensity
449	100
287	100
