Mass spectrum: Verbascoside; MS2; QIT; [M+Na]+; 55V
Name: Verbascoside
Class: CLASS1 Terpenoid
Class: CLASS2 Iridoid
Class: CLASS3 Verbascoside
Formula: C29H36O15
Exact mass: 624.21 
Ion type: [M+Na]+
Precursor m/z: 647
m/z	relative intensity
647	5
604	41
562	5
515.8	15
485.1	100
467	56
321	4
278.6	11
234.6	8
