Mass spectrum: Rhamnose-hexose-hexose-hexose-Hederagenin; MS2; in source CID; [M-H]-; 70V
Name: Rhamnose-hexose-hexose-hexose-Hederagenin
Class: CLASS1 Terpenoid
Class: CLASS2 Triterpenoid
Class: CLASS3 Hederagenin glycoside
Exact mass: no data
Ion type: [M-H]-
Precursor m/z: 1103
m/z	relative intensity
1103	100
941	100
