Mass spectrum: Cyclo(Tyr-Ala); MS2; QIT; [M+H]+; 35%
Name: Cyclo(Tyr-Ala)
Class: CLASS1 Amino acid
Class: CLASS2 Peptide
Class: CLASS3 Cyclopeptide
Formula: C12H14N2O3
Exact mass: 234.10 
Ion type: [M+H]+
Precursor m/z: 235
m/z	relative intensity
235	40
207	22
190	4
162	7
129	36
147	4
136	100
119	4
107	4
