Mass spectrum: Delphinidin 3-O-rutinoside; MS2; QIT; [M]+; 45%
Name: Delphinidin 3-O-rutinoside
Class: CLASS1 Flavonoid
Class: CLASS2 Anthocyanin
Class: CLASS3 Delphinidin glycoside
Formula: C27H31O16Cl1
Exact mass: 611.16 
Ion type: [M]+
Precursor m/z: 611.1
m/z	relative intensity
303.2	100
465	100
