Mass spectrum: Sesquiterpenoid hexose; MS2; Q-TOF; [M+Na]+; 20V
Name: Sesquiterpenoid hexose
Class: CLASS1 Terpenoid
Class: CLASS2 Sesquiterpenoid
Class: CLASS3 Other
Formula: C21H38O8
Exact mass: 418.26 
Ion type: [M+Na]+
Precursor m/z: 418.2567
m/z	relative intensity
441.2477	100
419.2636	100
401.2482	100
239.1982	100
383.2461	100
221.1895	100
203.1796	100
