Mass spectrum: Dihydro-11,12'-dehydroergocryptine; MS2; QIT; [M+H]+; 25->30V
Name: Dihydro-11,12'-dehydroergocryptine
Class: CLASS1 Alkaloid
Class: CLASS2 Ergot
Class: CLASS3 Ergocristine
Exact mass: no data
Ion type: [M+H]+
Precursor m/z: 364.1
m/z	relative intensity
364.1	100
350.1	5
336.1	14
321.1	10
