Mass spectrum: Indol-3-ylmethyl glucosinolate; MS2; Q-TOF; [M+H]+; 15->55V
Name: Indol-3-ylmethyl glucosinolate
Name: glucobrassicin
Class: CLASS1 Glucosinolate
Class: CLASS2 Indole glucosinolate
Formula: C16H20N2O9S2
Exact mass: 448.0610223
Ion type: [M+H]+
Precursor m/z: 504.9763
m/z	relative intensity
504.9763	30
425.0234	74
348.0347	33
342.9287	20
262.9684	13
252.9635	13
244.9653	17
218.9677	13
187.9928	11
142.9578	5
132.9239	6
130.0611	100
