Mass spectrum: Kaempferol O-hexoside, O-hexosyl-rhamnoside; MS2; QqQ; [M+H]+; 27%
Name: Kaempferol O-hexoside, O-hexosyl-rhamnoside
Class: CLASS1 Flavonoid
Class: CLASS2 Flavonol
Class: CLASS3 Kaempferol glycoside
Exact mass: no data
Ion type: [M+H]+
Precursor m/z: 757
m/z	relative intensity
449	100
287	100
