Mass spectrum: Quercetin-hexoside; MS2; QIT; [M+H]+; 20%
Name: Quercetin-hexoside
Class: CLASS1 Flavonoid
Class: CLASS2 Flavonol
Class: CLASS3 Quercetin glycoside
Exact mass: no data
Ion type: [M+H]+
Precursor m/z: 465
m/z	relative intensity
465	100
303	100
