Mass spectrum: Digalloylquinic acid; MS2; QIT; [M-H]-; 15V
Name: Digalloylquinic acid
Class: CLASS1 Other
Class: CLASS2 Other
Class: CLASS3 Other
Exact mass: no data
Ion type: [M-H]-
Precursor m/z: 495
m/z	relative intensity
477	100
343	100
325	100
