Mass spectrum: Digalloylglucose; MS2; Q-TOF; [M-H]-; 20V
Name: Digalloylglucose
Class: CLASS1 Tannin
Class: CLASS2 Gallotannin
Class: CLASS3 Galloyl glycoside
Formula: C20H20O14
Exact mass: 484.09 
Ion type: [M-H]-
Precursor m/z: 484.0853
m/z	relative intensity
483.0754	100
331.0621	100
313.0573	100
271.0443	100
169.0138	100
