Mass spectrum: 4-O-Caffeoylquinic acid; MS2; QqQ; [M-H]-; 50V
Name: 4-O-Caffeoylquinic acid
Class: CLASS1 Phenylpropanoid
Class: CLASS2 Phenylpropanoid ester
Class: CLASS3 Quinic acid
Formula: C16H18O9
Exact mass: 354.10 
Ion type: [M-H]-
Precursor m/z: 353
m/z	relative intensity
353	100
173	100
179	53
191	16
135	12
