Mass spectrum: Tanshinone I; MS2; QIT; [M+H]+; 40%
Name: Tanshinone I
Name: Phenanthro[1,2-b]furan-10,11-dione, 1,6-dimethyl-
Class: CLASS1 Terpenoid
Class: CLASS2 Diterpenoid
Class: CLASS3 tanshinone
Formula: C18H12O3
Exact mass: 276.08 
Ion type: [M+H]+
Precursor m/z: 277
m/z	relative intensity
249	100
231	11
221	3
