Mass spectrum: Isoleucine; MS2; Q-TOF; [M+H]+; 15->55V
Name: Isoleucine
Class: CLASS1 Amino acid
Class: CLASS2 Isoleucine
Formula: C6H13N1O2
Exact mass: 131.0946287
Ion type: [M+H]+
Precursor m/z: 132.1014
m/z	relative intensity
132.1014	7
115.9647	6
99.5106	3
86.0948	100
69.0704	14
