Mass spectrum: Dimethoxycinnamoyl hexose; MS2; QqQ; [M+H]+; 30eV
Name: Dimethoxycinnamoyl hexose
Class: CLASS1 Phenylpropanoid
Class: CLASS2 Phenylpropanoid glycoside
Exact mass: 0.00 
Ion type: [M+H]+
Precursor m/z: 352.7
m/z	relative intensity
190.9	100
162.9	11
147.9	13
145	7
133.1	6
98.2	5
