Mass spectrum: Demethyl suspensaside A; MS2; QIT; [M-H]-; 45%
Name: Demethyl suspensaside A
Class: CLASS1 Phenylpropanoid
Class: CLASS2 Phenylpropanoid glycoside
Class: CLASS3 Suspensaside
Formula: C28H32O15
Exact mass: 608.17 
Ion type: [M-H]-
Precursor m/z: 607
m/z	relative intensity
607	100
473	29
455	36
445	100
413	10
245	5
179	20
