Mass spectrum: Acetoxypinoresinol; MS2; QqQ; [M+H]+; 70V
Name: Acetoxypinoresinol
Class: CLASS1 Phenylpropanoid
Class: CLASS2 Lignan
Class: CLASS3 Pinoresinol
Formula: C22H24O8
Exact mass: 416.15 
Ion type: [M+H]+
Precursor m/z: 417
m/z	relative intensity
417	26
416	77
358	5
221	24
207	68
205	67
204	100
189	29
173	20
163	36
152	55
151	80
137	73
131	77
103	25
