Mass spectrum: (+-)-alpha-Tocopherol; MS2; QqQ; positive; CE 10 V
Name: (+-)-alpha-Tocopherol
Name: Vitamin E
Name: DL-all-rac-alpha-Tocopherol
Name: Phytogermine
Name: Profecundin
Name: Syntopherol
Name: Waynecomycin
Name: Almefrol
Name: Denamone
Name: Emipherol
Class: CLASS1 Other
Class: CLASS2 Vitamin
Formula: C29H50O2
Exact mass: 430.381
SMILES: CC1=C(C(=C2CCC(OC2=C1C)(C)CCCC(C)CCCC(C)CCCC(C)C)C)O
InChI: (2R)-2,5,7,8-tetramethyl-2-[(4R,8R)-4,8,12-trimethyltridecyl]chroman-6-ol
Instrument: TQD, Waters
Ion type: [M+H]+
Precursor m/z: 430.64
m/z	relative intensity
430	999
431	786
432	57
