Mass spectrum: Sodium pyruvate; MS2; QqQ; positive; CE 10 V
Name: Sodium pyruvate
Name: alpha-Ketopropionic acid sodium salt
Name: Pyruvic acid sodium salt
Name: 2-Oxopropanoic acid sodium salt
Name: Acetylformic acid
Class: CLASS1 Other
Class: CLASS2 Carboxylic acid
Class: CLASS3 Formic acid
Formula: C3H4O3
Exact mass: 88.016
SMILES: CC(=O)C(=O)O
InChI: 2-oxopropanoic acid
Instrument: TQD, Waters
Ion type: [M+H]+
Precursor m/z: 88.06
m/z	relative intensity
59	87
60	688
87	218
88	999
