Mass spectrum: 4-Aminophenol hydrochloride; MS2; QqQ; positive; CE 10 V
Name: 4-Aminophenol hydrochloride
Name: 4-Hydroxyaniline hydrochloride
Name: p-Aminophenol
Class: CLASS1 Other
Class: CLASS2 Phenol
Class: CLASS3 Other
Formula: C6H7NO
Exact mass: 109.052
SMILES: C1=CC(=CC=C1N)O
InChI: 4-aminophenol
Instrument: TQD, Waters
Ion type: [M+H]+
Precursor m/z: 110.05
m/z	relative intensity
68	63
69	153
89	548
90	41
109	44
110	999
