Mass spectrum: 1,10-Phenanthroline monohydrate; MS2; QqQ; positive; CE 30 V
Name: 1,10-Phenanthroline monohydrate
Name: o-Phenanthroline Monohydrate
Class: CLASS1 Other
Class: CLASS2 Other
Class: CLASS3 Phenanthroline
Formula: C12H8N2
Exact mass: 180.068
SMILES: C1=CC2=C(C3=C(C=CC=N3)C=C2)N=C1
InChI: 1,10-phenanthroline
Instrument: TQD, Waters
Ion type: [M+H]+
Precursor m/z: 181.19
m/z	relative intensity
179	59
180	126
181	999
