Mass spectrum: Cadaverine; MS2; QqQ; positive; CE 10 V
Name: Cadaverine
Name: 1,5-Pentanediamine
Name: 1,5-Diaminopentane
Name: Pentamethylenediamine
Class: CLASS1 Alkaloid
Class: CLASS2 Polyamine
Class: CLASS3 Cadaverine
Formula: C5H14N2
Exact mass: 102.115
SMILES: C(CCN)CCN
InChI: pentane-1,5-diamine
Instrument: TQD, Waters
Ion type: [M+H]+
Precursor m/z: 103.15
m/z	relative intensity
85	159
86	999
102	63
103	742
