Mass spectrum: 1,4-Diaminobutane; MS2; QqQ; positive; CE 20 V
Name: 1,4-Diaminobutane
Name: 1,4-Butanediamine
Name: Putrescine
Name: Tetramethylenediamine
Class: CLASS1 Alkaloid
Class: CLASS2 Polyamine
Class: CLASS3 Putrescine
Formula: C4H12N2
Exact mass: 88.1
SMILES: C(CCN)CN
InChI: butane-1,4-diamine
Instrument: TQD, Waters
Ion type: [M+H]+
Precursor m/z: 88.07
m/z	relative intensity
29	36
42	43
43	123
56	30
59	104
60	999
87	33
88	87
