Mass spectrum: 1,1-Dimethylbiguanide hydrochloride; MS2; QqQ; positive; CE 20 V
Name: 1,1-Dimethylbiguanide hydrochloride
Name: Metformin hydrochloride
Name: Dimethylguanylguanidine
Name: Glucophage
Class: CLASS1 Other
Class: CLASS2 Other
Class: CLASS3 Metformin
Formula: C4H11N5
Exact mass: 129.101
SMILES: CN(C)C(=N)N=C(N)N
InChI: 3-(diaminomethylidene)-1,1-dimethylguanidine
Instrument: TQD, Waters
Ion type: [M+H]+
Precursor m/z: 130.17
m/z	relative intensity
46	141
59	232
60	999
68	57
69	99
70	137
71	453
85	148
88	224
113	48
129	115
130	475
