Mass spectrum: 5-Methylcytosine hydrochloride; MS2; QqQ; positive; CE 10 V
Name: 5-Methylcytosine hydrochloride
Name: 4-Amino-2-hydroxy-5-methylpyrimidine Hydrochloride
Class: CLASS1 Other
Class: CLASS2 Other
Class: CLASS3 Cytosine
Formula: C5H7N3O
Exact mass: 125.058
SMILES: CC1=C(NC(=O)N=C1)N
InChI: 4-amino-5-methyl-3H-pyrimidin-2-one
Instrument: TQD, Waters
Ion type: [M+H]+
Precursor m/z: 126.1
m/z	relative intensity
125	155
126	999
