Mass spectrum: Pentachlorophenol; MS2; QqQ; negative; CE 30 V
Name: Pentachlorophenol
Name: PCP
Name: Chlorophen
Name: Permacide
Name: Fungifen
Class: CLASS1 Other
Class: CLASS2 Other
Class: CLASS3 Other
Formula: C6HCl5O
Exact mass: 89.002
SMILES: C1(=C(C(=C(C(=C1Cl)Cl)Cl)Cl)Cl)O
InChI: 2,3,4,5,6-pentachlorophenol
Instrument: TQD, Waters
Ion type: [M-H]-
Precursor m/z: 263.01
m/z	relative intensity
262	504
263	999
