Mass spectrum: Anthranilic acid; MS2; QqQ; positive; CE 50 V
Name: Anthranilic acid
Name: 2-AA
Name: o‚ÄêAminobenzoic Acid
Name: Vitamin L1
Name: 2-Carboxyaniline
Name: 2-aminobenzoate
Class: CLASS1 Other
Class: CLASS2 Vitamin
Formula: C7H7NO2
Exact mass: 137.047
SMILES: C1=CC=C(C(=C1)C(=O)O)N
InChI: 2-aminobenzoic acid
Instrument: TQD, Waters
Ion type: [M+H]+
Precursor m/z: 138.11
m/z	relative intensity
38	55
39	176
63	34
64	222
65	999
66	57
91	35
92	506
119	66
120	76
