Mass spectrum: Nicotinic Acid; MS2; QqQ; positive; CE 10 V
Name: Nicotinic Acid
Name: Vitamin B3
Name: Niacin
Name: Nicotinate
Name: 3-Picolinic acid
Name: Pyridine-3-carbonic acid
Name: Pellagra preventive factor
Class: CLASS1 Other
Class: CLASS2 Vitamin
Formula: C6H5NO2
Exact mass: 123.032
SMILES: C1=CC(=CN=C1)C(=O)O
InChI: pyridine-3-carboxylic acid
Instrument: TQD, Waters
Ion type: [M+H]+
Precursor m/z: 124.08
m/z	relative intensity
123	113
124	999
