Mass spectrum: (-)Shikimic acid; MS2; QqQ; negative; CE 10 V
Name: (-)Shikimic acid
Name: shikimate
Name: 3,4,5-Trihydroxy-1-cyclohexene-1-carboxylic acid
Name: (3R,4S,5R)-(?)-3,4,5-Trihydroxy-1-cyclohexenecarboxylic acid
Class: CLASS1 Other
Class: CLASS2 Carboxylic acid
Class: CLASS3 Shikimic acid
Formula: C7H10O5
Exact mass: 174.052
SMILES: C1C(C(C(C=C1C(=O)O)O)O)O
InChI: (3R,4S,5R)-3,4,5-trihydroxycyclohexene-1-carboxylic acid
Instrument: TQD, Waters
Ion type: [M-H]-
Precursor m/z: 173.14
m/z	relative intensity
155	44
172	107
173	999
