Mass spectrum: 4-Hydroxy-3-methoxycinnamaldehyde; MS2; QqQ; positive; CE 10 V
Name: 4-Hydroxy-3-methoxycinnamaldehyde
Name: Coniferyl aldehyde
Name: Coniferaldehyde
Name: Ferulaldehyde
Class: CLASS1 Phenylpropanoid
Class: CLASS2 Phenylpropanoid monomer
Class: CLASS3 Coniferyl aldehyde
Formula: C10H10O3
Exact mass: 178.062
SMILES: COC1=C(C=CC(=C1)C=CC=O)O
InChI: (E)-3-(4-hydroxy-3-methoxyphenyl)prop-2-enal
Instrument: TQD, Waters
Ion type: [M+H]+
Precursor m/z: 179.17
m/z	relative intensity
178	49
179	999
