Mass spectrum: Glycolaldehyde dimer,mixture of stereoisomers; MS2; QqQ; positive; CE 10 V
Name: Glycolaldehyde dimer,mixture of stereoisomers
Name: 1,4-Dioxane-2,5-diol
Name: 2,5-Dihydroxy-1,4-dioxane
Name: Hydroxyacetaldehyde dimer
Class: CLASS1 Other
Class: CLASS2 Other
Class: CLASS3 Other
Formula: C4H8O4
Exact mass: 120.042
SMILES: C1C(OCC(O1)O)O
InChI: 1,4-dioxane-2,5-diol
Instrument: TQD, Waters
Ion type: [M+H]+
Precursor m/z: 121.11
m/z	relative intensity
93	95
120	56
121	999
