Mass spectrum: Piperazine; MS2; QqQ; positive; CE 20 V
Name: Piperazine
Name: 1,4-Diazacyclohexane
Name: Diethylenediamine
Name: Hexahydropyrazine
Name: Hexahydro-1,4-diazine
Class: CLASS1 Other
Class: CLASS2 Other
Class: CLASS3 Other
Formula: C4H10N2
Exact mass: 86.084
SMILES: C1CNCCN1
InChI: piperazine
Instrument: TQD, Waters
Ion type: [M+H]+
Precursor m/z: 87.08
m/z	relative intensity
43	220
44	817
86	168
87	999
