Mass spectrum: 3-Amino-1,2,4-triazole; MS2; QqQ; positive; CE 40 V
Name: 3-Amino-1,2,4-triazole
Name: 3-AT
Name: ATA
Name: 1,2,4-Triazol-3-amine
Name: Amitrol
Name: Cytrole
Name: Emisol
Name: Herbizole
Name: aminotriazole
Class: CLASS1 Other
Class: CLASS2 Other
Class: CLASS3 Triazole
Formula: C2H4N4
Exact mass: 84.043
SMILES: C1=NNC(=N1)N
InChI: 2H-1,2,4-triazol-3-amine
Instrument: TQD, Waters
Ion type: [M+H]+
Precursor m/z: 85.05
m/z	relative intensity
28	32
42	145
43	388
56	58
57	142
82	58
84	259
85	999
