Mass spectrum: 2-Deoxyribose-5-phosphate sodium salt; MS2; QqQ; negative; CE 10 V
Name: 2-Deoxyribose-5-phosphate sodium salt
Name: d-ribose-5P
Class: CLASS1 Other
Class: CLASS2 Suger phosphate
Class: CLASS3 Ribose phosphate
Formula: C5H11O7P 
Exact mass: 214.024
SMILES: C1C(C(OC1O)COP(=O)(O)O)O
InChI: [(2R,3S)-3,5-dihydroxyoxolan-2-yl]methyl dihydrogen phosphate
Instrument: TQD, Waters
Ion type: [M-H]-
Precursor m/z: 213.15
m/z	relative intensity
97	62
212	68
213	999
