Mass spectrum: Cytosine; MS2; QqQ; positive; CE 10 V
Name: Cytosine
Name: 4-Amino-2-hydroxypyrimidine
Name: 6-Aminouracil
Name: 4-Amino-2-pyridinol
Name: 4-Amino-2-hydroxypurine
Name: 4-Amino-2-pyrimidinol
Name: 4-Amino-2-oxo-1,2-dihydropyrimidine
Name: Cytosinimine
Class: CLASS1 Other
Class: CLASS2 Other
Class: CLASS3 Cytosine
Formula: C4H5N3O
Exact mass: 111.043
SMILES: C1=C(NC(=O)N=C1)N
InChI: 4-amino-3H-pyrimidin-2-one
Instrument: TQD, Waters
Ion type: [M+H]+
Precursor m/z: 112.05
m/z	relative intensity
111	82
112	999
