Mass spectrum: 2-Deoxy-alpha-D-ribose-1-phosphate bis(cyclohexylammonium)salt; MS2; QqQ; positive; CE 10 V
Name: 2-Deoxy-alpha-D-ribose-1-phosphate bis(cyclohexylammonium)salt
Name: d-ribose-1P
Class: CLASS1 Other
Class: CLASS2 Suger phosphate
Class: CLASS3 Ribose phosphate
Formula: C5H11O7P
Exact mass: 214.024
SMILES: C1C(C(OC1OP(=O)(O)O)CO)O
InChI: [(4S,5R)-4-hydroxy-5-(hydroxymethyl)oxolan-2-yl] dihydrogen phosphate
Instrument: TQD, Waters
Ion type: [M+H]+
Precursor m/z: 214.12
m/z	relative intensity
186	999
