Mass spectrum: 1-Methylhistamine dihydrochloride; MS2; QqQ; positive; CE 20 V
Name: 1-Methylhistamine dihydrochloride
Name: 1-Methyl-4-(beta-aminoethyl)imidazole dihydrochloride
Class: CLASS1 Alkaloid
Class: CLASS2 Imidazole
Class: CLASS3 Histamine
Formula: C6H11N3
Exact mass: 125.095
SMILES: CN1C=C(N=C1)CCN
InChI: 2-(1-methylimidazol-4-yl)ethanamine
Instrument: TQD, Waters
Ion type: [M+H]+
Precursor m/z: 126.13
m/z	relative intensity
68	61
97	37
108	268
109	999
125	120
126	206
