Mass spectrum: D-(+)-Mannose,from wood; MS2; QqQ; negative; CE 20 V
Name: D-(+)-Mannose,from wood
Name: Man
Name: D-Mannopyranose
Name: D-Seminose
Name: Carubinose
Class: CLASS1 Other
Class: CLASS2 Sugar
Class: CLASS3 Monosaccharide
Formula: C6H12O6
Exact mass: 180.063
SMILES: C(C1C(C(C(C(O1)O)O)O)O)O
InChI: (3S,4S,5S,6R)-6-(hydroxymethyl)oxane-2,3,4,5-tetrol
Instrument: TQD, Waters
Ion type: [M-H]-
Precursor m/z: 179.15
m/z	relative intensity
89	999
