Mass spectrum: Malonyl coenzyme A lithium salt; MS2; QqQ; positive; CE 30 V
Name: Malonyl coenzyme A lithium salt
Name: malonyl-CoA
Class: CLASS1 Other
Class: CLASS2 CoA
Formula: C24H38N7O19P3S
Exact mass: 853.115
SMILES: CC(C)(COP(=O)(O)OP(=O)(O)OCC1C(C(C(O1)N2C=NC3=C2N=CN=C3N)O)OP(=O)(O)O)C(C(=O)NCCC(=O)NCCSC(=O)CC(=O)O)O
InChI: 3-[2-[3-[[4-[[[(2R,3S,4R,5R)-5-(6-aminopurin-9-yl)-4-hydroxy-3-phosphonooxyoxolan-2-yl]methoxy-hydroxyphosphoryl]oxy-hydroxyphosphoryl]oxy-2-hydroxy-3,3-dimethylbutanoyl]amino]propanoylamino]ethylsulfanyl]-3-oxopropanoic acid
Instrument: TQD, Waters
Ion type: [M+H]+
Precursor m/z: 854.39
m/z	relative intensity
853	999
