Mass spectrum: Methanesulfonic acid solution; MS2; QqQ; negative; CE 10 V
Name: Methanesulfonic acid solution
Name: MSA
Name: Methylsulfonic acid
Name: Mesic Acid
Name: Sulfomethane
Class: CLASS1 Other
Class: CLASS2 Other
Class: CLASS3 Other
Formula: CH4O3S
Exact mass: 95.988
SMILES: CS(=O)(=O)O
InChI: methanesulfonic acid
Instrument: TQD, Waters
Ion type: [M-H]-
Precursor m/z: 94.97
m/z	relative intensity
80	31
94	206
95	999
