Mass spectrum: D-Carnitine hydrochloride salt; MS2; QqQ; positive; CE 20 V
Name: D-Carnitine hydrochloride salt
Name: D-Vitamin BT
Name: beta-Hydroxy-gamma-trimethylaminobutyric Acid Hydrochloride
Class: CLASS1 Other
Class: CLASS2 Vitamin
Formula: C7H15NO3
Exact mass: 161.105
SMILES: C[N+](C)(C)CC(CC(=O)[O-])O
InChI: (3S)-3-hydroxy-4-trimethylazaniumylbutanoate
Instrument: TQD, Waters
Ion type: [M+H]+
Precursor m/z: 162.18
m/z	relative intensity
43	65
59	42
60	231
85	105
102	203
103	294
161	204
162	999
