Mass spectrum: Heptanoic acid; MS2; QqQ; positive; CE 20 V
Name: Heptanoic acid
Name: Enanthic acid
Name: Oenanthic acid
Name: Heptylic acid
Name: Heptoic acid
Name: Carboxylic Acid C7
Class: CLASS1 Other
Class: CLASS2 Carboxylic acid
Class: CLASS3 Heptanoic acid
Formula: C7H14O2
Exact mass: 130.099
SMILES: CCCCCCC(=O)O
InChI: heptanoic acid
Instrument: TQD, Waters
Ion type: [M+H]+
Precursor m/z: 130.6
m/z	relative intensity
68	403
69	999
89	122
90	33
