Mass spectrum: Melibiose hydrate; MS2; QqQ; positive; CE 50 V
Name: Melibiose hydrate
Name: Gal(alpha1-6)Glc
Name: alpha-D-Melibiose hydrate
Name: 6-alpha-D-Galactopyranosyl-D-glucopyranose
Class: CLASS1 Other
Class: CLASS2 Sugar
Class: CLASS3 Disaccharide
Formula: C12H22O11
Exact mass: 342.116
SMILES: C(C1C(C(C(C(O1)OCC2C(C(C(C(O2)O)O)O)O)O)O)O)O
InChI: (3R,4S,5S,6R)-6-[[(2S,3R,4S,5R,6R)-3,4,5-trihydroxy-6-(hydroxymethyl)oxan-2-yl]oxymethyl]oxane-2,3,4,5-tetrol
Instrument: TQD, Waters
Ion type: [M+H]+
Precursor m/z: 343.36
m/z	relative intensity
61	196
73	255
85	730
91	179
163	999
