Mass spectrum: DL-2,3-Diaminopropionic acid monohydrochloride; MS2; QqQ; positive; CE 20 V
Name: DL-2,3-Diaminopropionic acid monohydrochloride
Name: DL-Dap
Name: DL-2,3-Diaminopropionate
Name: DL-3-Aminoalanine Hydrochloride
Class: CLASS1 Other
Class: CLASS2 Other
Class: CLASS3 Alanine
Formula: C3H8N2O2
Exact mass: 104.058
SMILES: C(C(C(=O)O)N)N
InChI: 2,3-diaminopropanoic acid
Instrument: TQD, Waters
Ion type: [M+H]+
Precursor m/z: 105.08
m/z	relative intensity
30	42
41	33
42	162
58	65
59	413
69	57
70	376
76	120
87	206
88	999
105	157
