Mass spectrum: L-Norvaline; MS2; QqQ; positive; CE 10 V
Name: L-Norvaline
Name: Nva
Name: L-2-Aminovaleric acid
Name: (S)-(+)-2-Aminopentanoic acid
Name: (S)-2-Aminovaleric acid
Class: CLASS1 Amino acid
Class: CLASS2 Valine
Formula: C5H11NO2
Exact mass: 117.078
SMILES: CCCC(C(=O)O)N
InChI: (2S)-2-aminopentanoic acid
Instrument: TQD, Waters
Ion type: [M+H]+
Precursor m/z: 118.11
m/z	relative intensity
71	100
72	999
117	105
118	643
