Mass spectrum: 3-Indoleacetic acid; MS2; QqQ; positive; CE 50 V
Name: 3-Indoleacetic acid
Name: IAA
Name: 3-IAA
Name: Indoleacetate
Name: Indole-3-acetic acid
Name: Heteroauxin
Name: Rhizopin
Name: omega-Skatole carboxylic acid
Name: Rhizopon A
Class: CLASS1 Alkaloid
Class: CLASS2 Indole
Class: CLASS3 Indole
Formula: C10H9NO2
Exact mass: 175.063
SMILES: C1=CC=C2C(=C1)C(=CN2)CC(=O)O
InChI: 2-(1H-indol-3-yl)acetic acid
Instrument: TQD, Waters
Ion type: [M+H]+
Precursor m/z: 176.19
m/z	relative intensity
76	137
77	211
103	428
127	134
128	95
130	377
131	999
