Mass spectrum: DL-alpha-Hydroxybutyric acid barium salt; MS2; QqQ; negative; CE 10 V
Name: DL-alpha-Hydroxybutyric acid barium salt
Name: DL-2-Hydroxybutyrate
Name: DL-2-Hydroxybutyric acid
Name: (+/-)-2-Hydroxybutanoic acid barium salt
Class: CLASS1 Other
Class: CLASS2 Carboxylic acid
Class: CLASS3 Butanoic acid
Formula: C4H8O3
Exact mass: 104.047
SMILES: CCC(C(=O)O)O
InChI: (2S)-2-hydroxybutanoic acid
Instrument: TQD, Waters
Ion type: [M-H]-
Precursor m/z: 103.03
m/z	relative intensity
102	123
103	999
