Mass spectrum: DL-beta-Hydroxybutyric acid; MS2; QqQ; positive; CE 10 V
Name: DL-beta-Hydroxybutyric acid
Name: DL-3-Hydroxybutyrate
Name: DL-3-Hydroxybutyric acid
Name: (+/-)-3-Hydroxybutanoic acid
Class: CLASS1 Other
Class: CLASS2 Carboxylic acid
Class: CLASS3 Butyric acid
Formula: C4H8O3
Exact mass: 104.047
SMILES: CC(CC(=O)O)O
InChI: 3-hydroxybutanoic acid
Instrument: TQD, Waters
Ion type: [M+H]+
Precursor m/z: 105.09
m/z	relative intensity
23	114
63	268
64	999
