Mass spectrum: D-Carnitine hydrochloride salt; MS2; QqQ; positive; CE 30 V
Name: D-Carnitine hydrochloride salt
Name: D-Vitamin BT
Name: beta-Hydroxy-gamma-trimethylaminobutyric Acid Hydrochloride
Class: CLASS1 Other
Class: CLASS2 Vitamin
Formula: C7H15NO3
Exact mass: 161.105
SMILES: C[N+](C)(C)CC(CC(=O)[O-])O
InChI: (3S)-3-hydroxy-4-trimethylazaniumylbutanoate
Instrument: TQD, Waters
Ion type: [M+H]+
Precursor m/z: 162.18
m/z	relative intensity
28	48
29	122
41	47
42	410
43	999
56	67
57	234
58	81
59	260
60	738
84	254
85	824
101	148
102	568
103	661
160	94
161	260
162	452
163	49
