Mass spectrum: Succinic acid; MS2; QqQ; negative; CE 10 V
Name: Succinic acid
Name: Succinate
Name: Butanedioic acid
Name: Ethylene Dicarboxylic Acid
Name: Asuccin
Name: Amber acid
Name: Dihydrofumaric acid
Name: Wormwood acid
Name: Dicarboxylic Acid C4
Name: 1,2-Ethanedicarboxylic acid
Class: CLASS1 Other
Class: CLASS2 Carboxylic acid
Class: CLASS3 Succinic acid
Formula: C4H6O4
Exact mass: 118.026
SMILES: C(CC(=O)O)C(=O)O
InChI: butanedioic acid
Instrument: TQD, Waters
Ion type: [M-H]-
Precursor m/z: 117.06
m/z	relative intensity
116	98
117	999
