Mass spectrum: beta-Nicotinamide mononucleotide; MS2; QqQ; positive; CE 60 V
Name: beta-Nicotinamide mononucleotide
Name: beta-NMN
Name: Nicotinamide ribotide
Name: beta-Nicotinamide ribose monophosphate
Name: Nicotinamide-1-ium-1-beta-D-ribofuranoside 5'-phosphate
Class: CLASS1 Other
Class: CLASS2 Vitamin
Formula: C11H15N2O8P
Exact mass: 334.056
SMILES: C1=CC(=C[N+](=C1)C2C(C(C(O2)COP(=O)(O)[O-])O)O)C(=O)N
InChI: [(2R,3S,4R,5R)-5-(3-carbamoylpyridin-1-ium-1-yl)-3,4-dihydroxyoxolan-2-yl]methyl hydrogen phosphate
Instrument: TQD, Waters
Ion type: [M+H]+
Precursor m/z: 335.26
m/z	relative intensity
40	52
41	184
69	30
79	79
80	108
95	33
96	242
97	643
121	80
122	629
123	999
