Mass spectrum: n-Valeric acid; MS2; QqQ; positive; CE 20 V
Name: n-Valeric acid
Name: Valerate
Name: Pentanoate
Name: Valerianic acid
Name: Pentanoic acid
Name: Carboxylic Acid C5
Name: Pentane Acid
Name: 1-Butanecarboxylic acid
Name: Propylacetic acid
Class: CLASS1 Other
Class: CLASS2 Carboxylic acid
Class: CLASS3 Valeric acid
Formula: C5H10O2
Exact mass: 102.068
SMILES: CCCCC(=O)O
InChI: pentanoic acid
Instrument: TQD, Waters
Ion type: [M+H]+
Precursor m/z: 102.11
m/z	relative intensity
43	575
59	344
60	999
