Mass spectrum: alpha-Lactose monohydrate; MS2; QqQ; positive; CE 20 V
Name: alpha-Lactose monohydrate
Name: Lac
Name: alpha-D-lactobiose
Name: Milk sugar
Name: 4-O-beta-D-Galactopyranosyl-alpha-D-glucose
Name: beta-D-Gal-(1-4)-alpha-D-Glc
Name: (Gal(beta1-4)Glc) 
Class: CLASS1 Other
Class: CLASS2 Sugar
Class: CLASS3 Disaccharide
Formula: C12H22O11
Exact mass: 342.116
SMILES: C(C1C(C(C(C(O1)OC2C(OC(C(C2O)O)O)CO)O)O)O)O
InChI: (2R,3R,4S,5R,6S)-2-(hydroxymethyl)-6-[(2R,3S,4R,5R,6S)-4,5,6-trihydroxy-2-(hydroxymethyl)oxan-3-yl]oxyoxane-3,4,5-triol
Instrument: TQD, Waters
Ion type: [M+H]+
Precursor m/z: 343.37
m/z	relative intensity
90	46
144	34
145	150
162	394
163	999
