Mass spectrum: Sodium phenylpyruvate; MS2; QqQ; negative; CE 10 V
Name: Sodium phenylpyruvate
Name: beta-Phenylpyruvic acid
Name: beta-Phenylpyruvate
Name: 3-Phenyl-2-oxopropanoate
Name: 2-Oxo-3-phenylpropanoic acid
Name: Phenylpyruvic acid sodium salt
Name: alpha-ketohydrocinnamic acid
Class: CLASS1 Other
Class: CLASS2 Carboxylic acid
Class: CLASS3 Pyruvic acid
Formula: C9H8O3
Exact mass: 164.047
SMILES: C1=CC=C(C=C1)CC(=O)C(=O)O
InChI: 2-oxo-3-phenylpropanoic acid
Instrument: TQD, Waters
Ion type: [M-H]-
Precursor m/z: 163.11
m/z	relative intensity
90	188
91	976
163	999
