Mass spectrum: Cyanidin chloride; MS2; QqQ; positive; CE 60 V
Name: Cyanidin chloride
Name: Cynd
Name: 3,3',4',5,7-pentahydroxy flavylium
Name: Cyanidol
Class: CLASS1 Flavonoid
Class: CLASS2 Anthocyanin
Class: CLASS3 Cyanidin
Formula: C15H11O6
Exact mass: 287.055
SMILES: C1=CC(=C(C=C1C2=C(C=C3C(=CC(=CC3=[O+]2)O)O)O)O)O
InChI: 2-(3,4-dihydroxyphenyl)chromenylium-3,5,7-triol
Instrument: TQD, Waters
Ion type: [M+H]+
Precursor m/z: 287.29
m/z	relative intensity
114	999
