Mass spectrum: delta-Aminolevulinic acid hydrochloride; MS2; QqQ; positive; CE 20 V
Name: delta-Aminolevulinic acid hydrochloride
Name: ALA
Name: 5-Aminolevulinate
Name: 5-Amino-4-oxopentanoic acid
Name: 5-Amino-4-oxopentanoate
Name: 5-Aminolaevulinic acid
Name: Levulan
Name: Kerastick
Name: Aladerm
Class: CLASS1 Other
Class: CLASS2 Carboxylic acid
Class: CLASS3 Levulinic acid
Formula: C5H9NO3
Exact mass: 131.058
SMILES: C(CC(=O)O)C(=O)CN
InChI: 5-amino-4-oxopentanoic acid
Instrument: TQD, Waters
Ion type: [M+H]+
Precursor m/z: 132.1
m/z	relative intensity
30	45
43	31
52	33
53	198
54	133
55	311
68	55
72	58
73	50
85	121
86	999
96	34
113	170
114	569
131	95
132	288
