Mass spectrum: trans-Zeatin-riboside; MS2; QqQ; positive; CE 60 V
Name: trans-Zeatin-riboside
Name: trans-ribosylzeatin
Name: 9-(beta-D-Ribofuranosyl)-trans-zeatin
Name: N6-(trans-4-Hydroxy-3-methyl-2-buten-1-yl)adenosine
Class: CLASS1 Other
Class: CLASS2 Nucleoside
Class: CLASS3 Zeatin
Formula: C15H21N5O5
Exact mass: 351.154
SMILES: CC(=CCNC1=NC=NC2=C1N=CN2C3C(C(C(O3)CO)O)O)CO
InChI: (2R,3S,4R,5R)-2-(hydroxymethyl)-5-[6-[[(E)-4-hydroxy-3-methylbut-2-enyl]amino]purin-9-yl]oxolane-3,4-diol
Instrument: TQD, Waters
Ion type: [M+H]+
Precursor m/z: 352.37
m/z	relative intensity
42	62
43	370
55	37
57	49
67	42
119	82
134	63
135	243
136	999
147	52
148	155
220	31
