Mass spectrum: Kaempferol-3-O-beta-D-glucoside-7-O-alpha-L-rhamnoside; MS2; QqQ; positive; CE 10 V
Name: Kaempferol-3-O-beta-D-glucoside-7-O-alpha-L-rhamnoside
Name: Kaem-3-Glc-7-Rha
Name: Kaempferol-3-glucoside-7-rhamnoside
Class: CLASS1 Flavonoid
Class: CLASS2 Flavonol
Class: CLASS3 Kaempferol glycoside
Formula: C27H30O15
Exact mass: 594.158
SMILES: no data
InChI: no data
Instrument: TQD, Waters
Ion type: [M+H]+
Precursor m/z: 595.54
m/z	relative intensity
433	74
594	146
595	999
596	386
597	52
