Mass spectrum: Kaempferol-3-O-beta-D-galactoside-7-O-alpha-L-rhamnoside; MS2; QqQ; negative; CE 60 V
Name: Kaempferol-3-O-beta-D-galactoside-7-O-alpha-L-rhamnoside
Name: Kaem-3-Gal-7-Rha
Name: Kaempferol-3-galactoside-7-rhamnoside
Class: CLASS1 Flavonoid
Class: CLASS2 Flavonol
Class: CLASS3 Kaempferol glycoside
Formula: C27H30O15
Exact mass: 594.158
SMILES: no data
InChI: no data
Instrument: TQD, Waters
Ion type: [M-H]-
Precursor m/z: 593.57
m/z	relative intensity
255	34
281	69
282	314
283	999
284	474
285	573
429	169
430	374
431	300
447	72
593	55
