Mass spectrum: N-acetyl putrescine hydrochloride; MS2; QqQ; positive; CE 20 V
Name: N-acetyl putrescine hydrochloride
Name: Acetylputrescine
Name: N-(4-aminobutyl)acetamide
Class: CLASS1 Alkaloid
Class: CLASS2 Polyamine
Class: CLASS3 Putrescine
Formula: C6H14N2O
Exact mass: 130.11
SMILES: CC(=O)NCCCCN
InChI: N-(4-aminobutyl)acetamide
Instrument: TQD, Waters
Ion type: [M+H]+
Precursor m/z: 131.16
m/z	relative intensity
29	34
30	191
71	185
72	999
113	60
114	494
130	45
131	172
