Mass spectrum: Methylglyoxal solution ; MS2; QqQ; positive; CE 10 V
Name: Methylglyoxal solution 
Name: Pyruvaldehyde
Name: Pyruvic aldehyde
Name: Acetylformaldehyde
Name: alpha-Ketopropionaldehyde
Name: Propanolone
Name: 2-Oxopropionaldehyde
Name: 2-Oxopropanal
Name: Propanedione
Class: CLASS1 Other
Class: CLASS2 Other
Class: CLASS3 Glyoxal
Formula: C3H4O2
Exact mass: 72.021
SMILES: CC(=O)C=O
InChI: 2-oxopropanal
Instrument: TQD, Waters
Ion type: [M+H]+
Precursor m/z: 72.97
m/z	relative intensity
72	321
73	999
