Mass spectrum: L-alpha-Phosphatidylinositol; MS2; QqQ; negative; CE 10 V
Name: L-alpha-Phosphatidylinositol
Name: PI
Class: CLASS1 Other
Class: CLASS2 Phospholipid
Class: CLASS3 Phosphatidylinositol
Formula: -
Exact mass: 0
SMILES: no data
InChI: no data
Instrument: TQD, Waters
Ion type: [M-H]-
Precursor m/z: 834.08
m/z	relative intensity
833	466
834	999
835	180
