Mass spectrum: Xylobiose; MS2; QqQ; positive; CE 40 V
Name: Xylobiose
Name: 4-O-beta-D-xylopyranosyl-D-Xylose
Class: CLASS1 Other
Class: CLASS2 Sugar
Class: CLASS3 Oligosaccharide
Formula: C10H18O9
Exact mass: 282.095
SMILES: C1C(C(C(C(O1)OC2COC(C(C2O)O)O)O)O)O
InChI: (2S,3R,4S,5R)-2-[(3R,4R,5R)-4,5,6-trihydroxyoxan-3-yl]oxyoxane-3,4,5-triol
Instrument: TQD, Waters
Ion type: [M+H]+
Precursor m/z: 282.27
m/z	relative intensity
176	999
