Mass spectrum: L-saccharopine; MS2; QqQ; positive; CE 60 V
Name: L-saccharopine
Name: epsilon-N-(L-glutar-2-yl)-L-lysine
Name: N6-(L-1,3-dicarboxylpropyl)-L-lysine
Class: CLASS1 Amino acid
Class: CLASS2 Saccharopine
Formula: C11H20N2O6
Exact mass: 276.132
SMILES: C(CCNC(CCC(=O)O)C(=O)O)CC(C(=O)O)N
InChI: (2S)-2-[[(5S)-5-amino-6-hydroxy-6-oxohexyl]amino]pentanedioic acid
Instrument: TQD, Waters
Ion type: [M+H]+
Precursor m/z: 277.34
m/z	relative intensity
42	33
55	71
56	164
83	474
84	999
85	42
