Mass spectrum: sn-Glycero-3-phosphocholine 1:1 cadmium chloride adduct ; MS2; QqQ; positive; CE 30 V
Name: sn-Glycero-3-phosphocholine 1:1 cadmium chloride adduct 
Name: L-alpha-Glycerophosphorylcholine
Name: L-alpha-Glycerol Phosphorylcholine
Name: Choline Alphoscerate
Class: CLASS1 Other
Class: CLASS2 Phospholipid
Class: CLASS3 Phosphocholine
Formula: C8H21NO6P
Exact mass: 258.11
SMILES: C[N+](C)(C)CCOP(=O)(O)OCC(CO)O
InChI: 2-[[(2R)-2,3-dihydroxypropoxy]-hydroxyphosphoryl]oxyethyl-trimethylazanium
Instrument: TQD, Waters
Ion type: [M+H]+
Precursor m/z: 258.31
m/z	relative intensity
86	121
103	207
104	999
124	38
125	127
184	39
258	54
