Mass spectrum: L-beta-homotyrosine-HCl; MS2; QqQ; positive; CE 10 V
Name: L-beta-homotyrosine-HCl
Name: (S)-3-Amino-4-(4-hydroxyphenyl)butyric acid hydrochloride
Class: CLASS1 Amino acid
Class: CLASS2 Tyrosine
Formula: C10H13NO3
Exact mass: 195.089
SMILES: C1=CC(=CC=C1CC(CC(=O)O)N)O
InChI: (3S)-3-amino-4-(4-hydroxyphenyl)butanoic acid
Instrument: TQD, Waters
Ion type: [M+H]+
Precursor m/z: 196.24
m/z	relative intensity
179	143
195	114
196	999
