Mass spectrum: cis,cis-Muconic acid; MS2; QqQ; positive; CE 10 V
Name: cis,cis-Muconic acid
Name: cis,cis-Muconate
Name: cis,cis-2,4-Hexadienedioic acid
Name: cis,cis-Hexadienedioate
Class: CLASS1 Other
Class: CLASS2 Carboxylic acid
Class: CLASS3 Muconic acid
Formula: C6H6O4
Exact mass: 142.026
SMILES: C(=CC(=O)O)C=CC(=O)O
InChI: (2Z,4Z)-hexa-2,4-dienedioic acid
Instrument: TQD, Waters
Ion type: [M+H]+
Precursor m/z: 143.11
m/z	relative intensity
61	42
81	999
82	236
101	33
102	227
