Mass spectrum: L-Homoserine; MS2; QqQ; positive; CE 20 V
Name: L-Homoserine
Name: Hse
Name: HoSer
Name: (S)-2-Amino-4-hydroxybutyric acid
Name: 2-Amino-4-hydroxybutanoic acid
Class: CLASS1 Amino acid
Class: CLASS2 Serine
Formula: C4H9NO3
Exact mass: 119.058
SMILES: C(CO)C(C(=O)O)N
InChI: (2S)-2-amino-4-hydroxybutanoic acid
Instrument: TQD, Waters
Ion type: [M+H]+
Precursor m/z: 120.09
m/z	relative intensity
44	98
55	62
56	212
73	205
74	999
119	33
120	117
