Mass spectrum: O-Acetyl-L-homoserine hydrochloride; MS2; QqQ; positive; CE 40 V
Name: O-Acetyl-L-homoserine hydrochloride
Name: Ac-HSer
Name: (2S)-4-(acetyloxy)-2-aminobutanoic acid
Class: CLASS1 Amino acid
Class: CLASS2 Serine
Formula: C6H11NO4
Exact mass: 161.068
SMILES: CC(=O)OCCC(C(=O)O)N
InChI: (2S)-4-acetyloxy-2-aminobutanoic acid
Instrument: TQD, Waters
Ion type: [M+H]+
Precursor m/z: 162.17
m/z	relative intensity
27	34
28	132
42	123
43	728
44	89
46	69
55	188
56	999
73	95
74	537
