Mass spectrum: Scoulerin; MS2; QqQ; positive; CE 10 V
Name: Scoulerin
Name: Scoulerine
Name: discretamine
Name: Aequaline
Name: 2,9-Dioxy-3,10-dimethoxyberbine
Name: 3,10-Dimethoxy-13a-alpha-berbine-2,9-diol
Class: CLASS1 Flavonoid
Class: CLASS2 Flavone
Class: CLASS3 Scoulerin
Formula: C19H21NO4
Exact mass: 327.147
SMILES: COC1=C(C2=C(CC3C4=CC(=C(C=C4CCN3C2)OC)O)C=C1)O
InChI: (13aS)-3,10-dimethoxy-6,8,13,13a-tetrahydro-5H-isoquinolino[2,1-b]isoquinoline-2,9-diol
Instrument: TQD, Waters
Ion type: [M+H]+
Precursor m/z: 328.35
m/z	relative intensity
327	32
328	999
