Mass spectrum: D-beta-homophenylalanine-HCl; MS2; QqQ; positive; CE 40 V
Name: D-beta-homophenylalanine-HCl
Name: (R)-3-Amino-4-phenylbutyric acid hydrochloride
Class: CLASS1 Amino acid
Class: CLASS2 Phenylalanine
Formula: C10H13NO2
Exact mass: 179.094
SMILES: no data
InChI: no data
Instrument: TQD, Waters
Ion type: [M+H]+
Precursor m/z: 180.23
m/z	relative intensity
77	38
90	31
91	173
93	43
102	82
103	312
114	60
115	222
116	161
117	536
118	80
119	305
120	999
121	37
