Mass spectrum: N1-Acetylspermine Trihydrochloride; MS2; QqQ; positive; CE 10 V
Name: N1-Acetylspermine Trihydrochloride
Name: N'-Monoacetylspermine
Class: CLASS1 Alkaloid
Class: CLASS2 Polyamine
Class: CLASS3 Spermine
Formula: C12H28N4O
Exact mass: 244.226
SMILES: CC(=O)NCCCNCCCCNCCCN
InChI: N-[3-[4-(3-aminopropylamino)butylamino]propyl]acetamide
Instrument: TQD, Waters
Ion type: [M+H]+
Precursor m/z: 245.41
m/z	relative intensity
244	31
245	999
246	35
