Mass spectrum: N,N-Dimethylaniline; MS2; QqQ; positive; CE 10 V
Name: N,N-Dimethylaniline
Name: Dimethylphenylamine
Name: Dimethylaminobenzene
Name: N,N-Dimethylbenzenamine
Name: N,N-Dimethylphenylamine
Class: CLASS1 Other
Class: CLASS2 Other
Class: CLASS3 Aniline
Formula: C8H11N
Exact mass: 121.089
SMILES: CN(C)C1=CC=CC=C1
InChI: N,N-dimethylaniline
Instrument: TQD, Waters
Ion type: [M+H]+
Precursor m/z: 122.13
m/z	relative intensity
121	46
122	999
