Mass spectrum: O-Succinyl-L-homoserine; MS2; QqQ; positive; CE 10 V
Name: O-Succinyl-L-homoserine
Name: O-Succinylhomoserine
Name: (2S)-2-amino-4-(3-carboxypropanoyloxy)butanoic acid
Class: CLASS1 Amino acid
Class: CLASS2 Serine
Formula: C8H13NO6
Exact mass: 219.074
SMILES: C(COC(=O)CCC(=O)O)C(C(=O)O)N
InChI: (2S)-2-amino-4-(4-hydroxy-4-oxobutanoyl)oxybutanoic acid
Instrument: TQD, Waters
Ion type: [M+H]+
Precursor m/z: 220.24
m/z	relative intensity
102	70
219	129
220	999
