Mass spectrum: Succinic Semialdehyde solution ; MS2; QqQ; positive; CE 10 V
Name: Succinic Semialdehyde solution 
Name: 4-Oxobutanoate
Name: Succinate semialdehyde
Name: 4-Oxobutanoic acid
Name: 4-Oxobutyric acid
Name: Succinaldehydic acid
Name: Succinic semialdehyde monomer
Class: CLASS1 Other
Class: CLASS2 Carboxylic acid
Class: CLASS3 Butanoic acid
Formula: C4H6O3
Exact mass: 102.031
SMILES: C(CC(=O)O)C=O
InChI: 4-oxobutanoic acid
Instrument: TQD, Waters
Ion type: [M+H]+
Precursor m/z: 102.1
m/z	relative intensity
42	53
43	156
59	126
60	999
102	128
