Mass spectrum: (+)-gamma-Tocopherol; MS2; QqQ; positive; CE 10 V
Name: (+)-gamma-Tocopherol
Name: Vitamin E(gamma)
Name: (R,R,R)-gamma-Tocopherol
Name: 7,8-Dimethyltocol
Class: CLASS1 Other
Class: CLASS2 Vitamin
Formula: C28H48O2
Exact mass: 416.365
SMILES: CC1=C(C=C2CCC(OC2=C1C)(C)CCCC(C)CCCC(C)CCCC(C)C)O
InChI: (2R)-2,7,8-trimethyl-2-[(4R,8R)-4,8,12-trimethyltridecyl]chroman-6-ol
Instrument: TQD, Waters
Ion type: [M+H]+
Precursor m/z: 417.66
m/z	relative intensity
416	54
417	999
418	556
