Mass spectrum: 1,16-Hexadecanediol; MS2; QqQ; positive; CE 50 V
Name: 1,16-Hexadecanediol
Name: Hexadecamethylene glycol
Name: 1,16-Dihydroxyhexadecane
Class: CLASS1 Other
Class: CLASS2 Alkane
Formula: C16H34O2
Exact mass: 258.255
SMILES: C(CCCCCCCCO)CCCCCCCO
InChI: hexadecane-1,16-diol
Instrument: TQD, Waters
Ion type: [M+H]+
Precursor m/z: 259.47
m/z	relative intensity
40	77
41	360
42	59
43	305
54	100
55	999
56	52
57	200
68	155
69	720
83	108
97	74
