Mass spectrum: L-Carnitine; MS2; QqQ; positive; CE 30 V
Name: L-Carnitine
Name: Vitamin BT
Name: (-)-beta-Hydroxy-gamma-(trimethylammonio)butyrate
Name: Levocarnitine
Name: L-gamma-Trimethyl-beta-hydroxybutyrobetaine
Class: CLASS1 Other
Class: CLASS2 Vitamin
Formula: C7H16NO3
Exact mass: 162.113
SMILES: C[N+](C)(C)CC(CC(=O)[O-])O
InChI: (3R)-3-hydroxy-4-trimethylazaniumylbutanoate
Instrument: TQD, Waters
Ion type: [M+H]+
Precursor m/z: 162.2
m/z	relative intensity
29	172
41	33
42	258
43	999
56	51
57	172
58	36
59	233
60	656
84	172
85	517
101	93
102	513
103	594
160	56
161	148
162	341
163	32
