Mass spectrum: Aminooxyacetic acid Hemihydrochloride; MS2; QqQ; negative; CE 20 V
Name: Aminooxyacetic acid Hemihydrochloride
Name: AOAA
Name: AOA
Name: CMO
Name: Carboxymethoxylamine
Name: Aminooxyacetic acid
Class: CLASS1 Other
Class: CLASS2 Carboxylic acid
Class: CLASS3 Acetic acid
Formula: C2H5NO3
Exact mass: 91.026
SMILES: C(C(=O)O)ON
InChI: 2-aminooxyacetic acid
Instrument: TQD, Waters
Ion type: [M-H]-
Precursor m/z: 90.98
m/z	relative intensity
44	143
45	999
