Mass spectrum: 2,2',2''-Nitrilotriethanol; MS2; QqQ; positive; CE 30 V
Name: 2,2',2''-Nitrilotriethanol
Name: TEA
Name: Trolamine
Name: Triethanolamine
Name: Tris(2-hydroxyethyl)amine
Name: Tri-beta-hydroxyethylamine
Name: (2-Hydroxyethyl)amine
Name: Trihydroxyethylamine
Name: 2,2',2''-Trihydroxytriethylamine
Name: Daltogen
Name: Triethylolamine
Name: Trolamine
Class: CLASS1 Other
Class: CLASS2 Other
Class: CLASS3 Other
Formula: C6H15NO3
Exact mass: 149.105
SMILES: C(CO)N(CCO)CCO
InChI: 2-(bis(2-hydroxyethyl)amino)ethanol
Instrument: TQD, Waters
Ion type: [M+H]+
Precursor m/z: 150.17
m/z	relative intensity
28	34
29	33
41	121
42	243
43	161
44	650
45	813
69	254
70	999
87	106
88	295
114	42
131	50
132	169
148	88
149	173
150	316
151	32
