Mass spectrum: 5-Aminovaleric acid; MS2; QqQ; positive; CE 40 V
Name: 5-Aminovaleric acid
Name: 5-Aminopentanoate
Name: delta-Aminovalerate
Name: 5-Aminopentanoic acid
Name: Homopiperidinic acid
Class: CLASS1 Other
Class: CLASS2 Carboxylic acid
Class: CLASS3 Valeric acid
Formula: C5H11NO2
Exact mass: 117.078
SMILES: C(CCN)CC(=O)O
InChI: 5-aminopentanoic acid
Instrument: TQD, Waters
Ion type: [M+H]+
Precursor m/z: 118.1
m/z	relative intensity
27	50
28	51
29	100
30	93
31	59
41	47
52	38
54	240
55	999
56	445
58	96
59	259
