Mass spectrum: 1,16-Hexadecanediol; MS2; QqQ; positive; CE 40 V
Name: 1,16-Hexadecanediol
Name: Hexadecamethylene glycol
Name: 1,16-Dihydroxyhexadecane
Class: CLASS1 Other
Class: CLASS2 Alkane
Formula: C16H34O2
Exact mass: 258.255
SMILES: C(CCCCCCCCO)CCCCCCCO
InChI: hexadecane-1,16-diol
Instrument: TQD, Waters
Ion type: [M+H]+
Precursor m/z: 259.47
m/z	relative intensity
41	62
42	86
43	321
54	174
55	999
56	46
57	245
68	60
69	718
71	92
83	352
97	36
