Mass spectrum: D-Cysteine; MS2; QqQ; positive; CE 10 V
Name: D-Cysteine
Name: D-Cys
Name: (S)-2-Amino-3-mercaptopropionic acid
Name: beta-Mercapto-D-alanine
Class: CLASS1 Amino acid
Class: CLASS2 Cysteine
Formula: C3H7NO2S
Exact mass: 121.019
SMILES: C(C(C(=O)O)N)S
InChI: (2S)-2-amino-3-sulfanylpropanoic acid
Instrument: TQD, Waters
Ion type: [M+H]+
Precursor m/z: 122.06
m/z	relative intensity
76	108
105	108
121	377
122	999
