Mass spectrum: 2-Methoxycinnamic acid; MS2; QqQ; positive; CE 30 V
Name: 2-Methoxycinnamic acid
Name: 3-(2-Methoxyphenyl)acrylic Acid
Name: Methyl-o-coumaric Acid
Name: 3-(2-Methoxyphenyl)propenoic Acid
Class: CLASS1 Phenylpropanoid
Class: CLASS2 Phenylpropanoid monomer
Class: CLASS3 Cinnamic acid
Formula: C10H10O3
Exact mass: 178.062
SMILES: COC1=CC=CC=C1C=CC(=O)O
InChI: (E)-3-(2-methoxyphenyl)prop-2-enoic acid
Instrument: TQD, Waters
Ion type: [M+H]+
Precursor m/z: 179.17
m/z	relative intensity
77	64
79	118
102	47
103	161
104	265
105	999
107	79
118	315
146	185
159	34
160	119
161	383
