Mass spectrum: Zeatin-9-glucoside; MS2; QqQ; positive; CE 10 V
Name: Zeatin-9-glucoside
Name: 9-(beta-D-Glucopyranosyl)-trans-zeatin
Name: trans-Zeatinglucoside
Class: CLASS1 Other
Class: CLASS2 Nucleoside
Class: CLASS3 Zeatin
Formula: C16H23N5O6
Exact mass: 381.164
SMILES: CC(=CCNC1=NC=NC2=C1N=CN2C3C(C(C(C(O3)CO)O)O)O)CO
InChI: (2R,3S,4S,5R,6R)-2-(hydroxymethyl)-6-[6-[[(E)-4-hydroxy-3-methylbut-2-enyl]amino]purin-9-yl]oxane-3,4,5-triol
Instrument: TQD, Waters
Ion type: [M+H]+
Precursor m/z: 382.41
m/z	relative intensity
381	91
382	999
