Mass spectrum: Citraconic Acid; MS2; QqQ; positive; CE 20 V
Name: Citraconic Acid
Name: Citraconate
Name: Mesaconic Acid
Name: 2-Methylmaleate
Name: Methylmaleic acid
Name: 2-Methyl-2-butenedioic acid
Name: cis-Methylbutenedioic acid
Class: CLASS1 Other
Class: CLASS2 Carboxylic acid
Class: CLASS3 Citraconic acid
Formula: C5H6O4
Exact mass: 130.026
SMILES: CC(=CC(=O)O)C(=O)O
InChI: (Z)-2-methylbut-2-enedioic acid
Instrument: TQD, Waters
Ion type: [M+H]+
Precursor m/z: 130.6
m/z	relative intensity
68	311
69	999
89	154
