Mass spectrum: Resveratrol; MS2; QqQ; positive; CE 10 V
Name: Resveratrol
Name: 3,4,5-Trihydroxystilbene
Name: 3,5,4'-Stilbenetriol
Name: 3,4',5-Trihydroxy-trans-stilbene  (E)-5-(p-Hydroxystyryl)resorcinol
Class: CLASS1 Stilbenoid
Class: CLASS2 Stilben
Class: CLASS3 Stilbene
Formula: C14H12O3
Exact mass: 228.078
SMILES: C1=CC(=CC=C1C=CC2=CC(=CC(=C2)O)O)O
InChI: 5-[(E)-2-(4-hydroxyphenyl)ethenyl]benzene-1,3-diol
Instrument: TQD, Waters
Ion type: [M+H]+
Precursor m/z: 229.27
m/z	relative intensity
228	113
229	999
