Mass spectrum: D-Sorbitol-6-phosphate barium salt ; MS2; QqQ; positive; CE 20 V
Name: D-Sorbitol-6-phosphate barium salt 
Name: D-Glucitol 6-phosphate
Class: CLASS1 Other
Class: CLASS2 Suger phosphate
Class: CLASS3 Sorbitol phosphate
Formula: C6H15O9P
Exact mass: 262.045
SMILES: C(C(C(C(C(COP(=O)(O)O)O)O)O)O)O
InChI: [(2R,3R,4R,5S)-2,3,4,5,6-pentahydroxyhexyl] dihydrogen phosphate
Instrument: TQD, Waters
Ion type: [M+H]+
Precursor m/z: 263.25
m/z	relative intensity
57	32
68	162
69	609
98	44
129	81
146	117
147	999
164	81
165	369
265	31
