Mass spectrum: Hesperetin; MS2; QqQ; positive; CE 10 V
Name: Hesperetin
Name: 3',5,7-Trihydroxy-4'-methoxy flavanone
Class: CLASS1 Flavonoid
Class: CLASS2 Flavanone
Class: CLASS3 Hesperetin
Formula: C16H14O6
Exact mass: 302.079
SMILES: COC1=C(C=C(C=C1)C2CC(=O)C3=C(C=C(C=C3O2)O)O)O
InChI: (2S)-5,7-dihydroxy-2-(3-hydroxy-4-methoxyphenyl)chroman-4-one
Instrument: TQD, Waters
Ion type: [M+H]+
Precursor m/z: 303.28
m/z	relative intensity
302	259
303	999
