Mass spectrum: L-beta-Homoisoleucine hydrochloride; MS2; QqQ; positive; CE 20 V
Name: L-beta-Homoisoleucine hydrochloride
Name: (3R,4S)-3-Amino-4-methylhexanoic acid hydrochloride
Class: CLASS1 Amino acid
Class: CLASS2 Isoleucine
Formula: C7H15NO2
Exact mass: 145.11
SMILES: CCC(C)C(CC(=O)O)N
InChI: no data
Instrument: TQD, Waters
Ion type: [M+H]+
Precursor m/z: 146.18
m/z	relative intensity
55	105
68	56
69	221
82	43
83	342
85	116
86	999
87	38
111	74
145	57
146	139
