Mass spectrum: N-Acetyl-Phytosphingosine; MS2; QqQ; positive; CE 10 V
Name: N-Acetyl-Phytosphingosine
Name: N-C2:0-Phytoceramide
Class: CLASS1 Other
Class: CLASS2 Sphingosine
Formula: C20H41NO4
Exact mass: 359.303
SMILES: no data
InChI: no data
Instrument: TQD, Waters
Ion type: [M+H]+
Precursor m/z: 360.53
m/z	relative intensity
359	36
360	999
361	300
