Mass spectrum: 12-Oxo-10,15(Z)-Phytodienoic Acid; MS2; QqQ; positive; CE 10 V
Name: 12-Oxo-10,15(Z)-Phytodienoic Acid
Name: 12-oxo-PDA
Name: o-Phytodienoic acid
Name: 12-oxo-phytodienoic acid
Name: 12-oxophytodienoate
Name: 8-(2-(cis-2'-pentenyl)-3-oxo-cis-4-cyclopentenyl)octanoic acid
Class: CLASS1 Other
Class: CLASS2 Other
Class: CLASS3 Phytodienoic acid
Formula: C18H28O3
Exact mass: 292.203
SMILES: CCC=CCC1C(C=CC1=O)CCCCCCCC(=O)O
InChI: 8-[(1R,5R)-4-oxo-5-[(Z)-pent-2-enyl]-1-cyclopent-2-enyl]octanoic acid
Instrument: TQD, Waters
Ion type: [M+H]+
Precursor m/z: 293.49
m/z	relative intensity
45	679
252	326
293	999
