Mass spectrum: 1,2-Dilauroyl-sn-Glycero-3-Phosphate Monosodium Salt; MS2; QqQ; positive; CE 30 V
Name: 1,2-Dilauroyl-sn-Glycero-3-Phosphate Monosodium Salt
Name: DLPA
Name: 12:0/12:0PA
Name: Dilauroylphosphatidic acid
Name: 1,2-Didodecanoyl phosphatidyl 1'-sn-glycerol
Class: CLASS1 Other
Class: CLASS2 Phospholipid
Class: CLASS3 Phosphatidylglycerol
Formula: C27H53O8P
Exact mass: 536.347
SMILES: CCCCCCCCCCCC(=O)OCC(COP(=O)(O)O)OC(=O)CCCCCCCCCCC
InChI: [(2R)-1-dodecanoyloxy-3-phosphonooxypropan-2-yl] dodecanoate
Instrument: TQD, Waters
Ion type: [M+H]+
Precursor m/z: 537.67
m/z	relative intensity
154	30
155	33
183	147
438	34
439	999
440	603
441	47
