Mass spectrum: Saponarin; MS2; QqQ; positive; CE 10 V
Name: Saponarin
Name: Apig-6-C-Glc-7-Glc
Name: apigenin-6-C-glucoside -7-O-glucoside
Name: Isovitexin-7-O-glucoside
Name: Saponaretin-7-O-glucoside
Name: Isovitexin-7-O-beta-D-glucopyranoside
Class: CLASS1 Flavonoid
Class: CLASS2 Flavone
Class: CLASS3 Apigenin glycoside
Formula: C27H30O15
Exact mass: 594.158
SMILES: C1=CC(=CC=C1C2=CC(=O)C3=C(C(=C(C=C3O2)OC4C(C(C(C(O4)CO)O)O)O)C5C(C(C(C(O5)CO)O)O)O)O)O
InChI: 5-hydroxy-2-(4-hydroxyphenyl)-6-[(2S,3R,4R,5S,6R)-3,4,5-trihydroxy-6-(hydroxymethyl)oxan-2-yl]-7-[(2S,3R,4R,5S,6R)-3,4,5-trihydroxy-6-(hydroxymethyl)oxan-2-yl]oxychromen-4-one
Instrument: TQD, Waters
Ion type: [M+H]+
Precursor m/z: 595.47
m/z	relative intensity
594	108
595	999
596	468
597	60
