Mass spectrum: Hinokitiol; MS2; QqQ; positive; CE 10 V
Name: Hinokitiol
Name: beta-Thujaplicin
Name: beta.-Thujaplicine
Name: 2-Hydroxy-4-isopropyl-2,4,6-cycloheptatrien-1-one
Name: 4-Isopropyltropolon
Class: CLASS1 Terpenoid
Class: CLASS2 Monoterpenoid
Class: CLASS3 Hinokitiol
Formula: C10H12O2
Exact mass: 164.083
SMILES: CC(C)C1=CC(=O)C(=CC=C1)O
InChI: 2-hydroxy-6-propan-2-ylcyclohepta-2,4,6-trien-1-one
Instrument: TQD, Waters
Ion type: [M+H]+
Precursor m/z: 165.18
m/z	relative intensity
164	83
165	999
