Mass spectrum: 1-Lauroyl-2-Hydroxy-sn-Glycero-3-Phosphocholine; MS2; QqQ; positive; CE 40 V
Name: 1-Lauroyl-2-Hydroxy-sn-Glycero-3-Phosphocholine
Name: 12:0 LysoPC
Name: 1-Dodecanoyllysolecithin
Name: Phosphocholine,1-Lauroyl-2-Hydroxy-sn-Glycero-3- 
Class: CLASS1 Other
Class: CLASS2 Phospholipid
Class: CLASS3 Phosphocholine
Formula: C20H42NO7P
Exact mass: 439.269
SMILES: CCCCCCCCCCCC(=O)OCC(COP(=O)([O-])OCC[N+](C)(C)C)O
InChI: [(2R)-3-dodecanoyloxy-2-hydroxypropyl] 2-trimethylazaniumylethyl phosphate
Instrument: TQD, Waters
Ion type: [M+H]+
Precursor m/z: 440.55
m/z	relative intensity
57	31
60	31
86	160
103	30
104	799
125	32
183	148
184	999
257	43
