Mass spectrum: Sakuranetin; MS2; QqQ; positive; CE 50 V
Name: Sakuranetin
Class: CLASS1 Flavonoid
Class: CLASS2 Flavanone
Class: CLASS3 Sakuranetin
Formula: C16H14O5
Exact mass: 286.084
SMILES: COC1=CC(=C2C(=O)CC(OC2=C1)C3=CC=C(C=C3)O)O
InChI: (2S)-5-hydroxy-2-(4-hydroxyphenyl)-7-methoxychroman-4-one
Instrument: TQD, Waters
Ion type: [M+H]+
Precursor m/z: 287.28
m/z	relative intensity
66	30
67	152
68	32
69	39
90	79
91	403
95	40
111	174
118	158
119	786
145	61
146	140
147	353
165	80
166	370
167	999
286	31
287	46
