Mass spectrum: Kaempferol-3-Glucoside-3''-Rhamnoside; MS2; QqQ; positive; CE 10 V
Name: Kaempferol-3-Glucoside-3''-Rhamnoside
Name: Kaem-3-Glc-3''-Rha
Name: Kaempferol-3-rungioside
Class: CLASS1 Flavonoid
Class: CLASS2 Flavonol
Class: CLASS3 Kaempferol glycoside
Formula: C27H30O15
Exact mass: 594.158
SMILES: no data
InChI: no data
Instrument: TQD, Waters
Ion type: [M+H]+
Precursor m/z: 595.54
m/z	relative intensity
287	135
449	83
594	346
595	999
596	508
597	130
