Mass spectrum: Kaempferol-3-Glucoside-3''-Rhamnoside; MS2; QqQ; negative; CE 30 V
Name: Kaempferol-3-Glucoside-3''-Rhamnoside
Name: Kaem-3-Glc-3''-Rha
Name: Kaempferol-3-rungioside
Class: CLASS1 Flavonoid
Class: CLASS2 Flavonol
Class: CLASS3 Kaempferol glycoside
Formula: C27H30O15
Exact mass: 594.158
SMILES: no data
InChI: no data
Instrument: TQD, Waters
Ion type: [M-H]-
Precursor m/z: 593.57
m/z	relative intensity
284	64
285	104
591	37
592	430
593	999
594	927
595	82
