Mass spectrum: N,N-Dimethylglycine hydrochloride; MS2; QqQ; positive; CE 30 V
Name: N,N-Dimethylglycine hydrochloride
Name: Dmg
Name: N,N-Dimethylaminoacetic acid hydrochloride
Name: 2-dimethylaminoacetic acid hydrochloride
Name: N-Methylsarcosine hydrochloride
Class: CLASS1 Amino acid
Class: CLASS2 Glycine
Formula: C4H9NO2
Exact mass: 103.063
SMILES: CN(C)CC(=O)O
InChI: 2-dimethylaminoacetic acid
Instrument: TQD, Waters
Ion type: [M+H]+
Precursor m/z: 104.08
m/z	relative intensity
57	209
58	999
