Mass spectrum: Kaempferol-3-Galactoside-6''-Rhamnoside-3'''-Rhamnoside; MS2; QqQ; positive; CE 10 V
Name: Kaempferol-3-Galactoside-6''-Rhamnoside-3'''-Rhamnoside
Name: Kaem-3-Gal-6''-Rha-3''-Rha
Class: CLASS1 Flavonoid
Class: CLASS2 Flavonol
Class: CLASS3 Kaempferol glycoside
Formula: C33H40O19
Exact mass: 740.216
SMILES: no data
InChI: no data
Instrument: TQD, Waters
Ion type: [M+H]+
Precursor m/z: 741.7
m/z	relative intensity
287	35
740	146
741	562
742	999
743	179
