Mass spectrum: Myricetin-3-Xyloside; MS2; QqQ; positive; CE 20 V
Name: Myricetin-3-Xyloside
Name: Myrc-3-Xyl
Class: CLASS1 Flavonoid
Class: CLASS2 Flavonol
Class: CLASS3 Myricetin glycoside
Formula: C20H18O12
Exact mass: 450.079
SMILES: no data
InChI: no data
Instrument: TQD, Waters
Ion type: [M+H]+
Precursor m/z: 451.4
m/z	relative intensity
73	59
318	255
319	999
320	36
