Mass spectrum: Isorhamnetin-3-Galactoside-6''-Rhamnoside; MS2; QqQ; positive; CE 60 V
Name: Isorhamnetin-3-Galactoside-6''-Rhamnoside
Name: Isor-3-Gal-6''-Rha
Class: CLASS1 Flavonoid
Class: CLASS2 Flavonol
Class: CLASS3 Isorhamnetin glycoside
Formula: C28H32O16
Exact mass: 624.169
SMILES: no data
InChI: no data
Instrument: TQD, Waters
Ion type: [M+H]+
Precursor m/z: 625.57
m/z	relative intensity
61	32
71	237
84	49
85	284
315	47
316	380
317	999
318	214
