Mass spectrum: Hippuric Acid; MS2; QqQ; positive; CE 60 V
Name: Hippuric Acid
Name: Hippurate
Name: N-Benzoylglycine
Name: N-Benzoylglycine
Name: Benzoylaminoacetic acid
Name: Benzamidoacetic acid
Name: Phenylcarbonylaminoacetic acid
Class: CLASS1 Other
Class: CLASS2 Carboxylic acid
Class: CLASS3 Hippuric acid
Formula: C9H9NO3
Exact mass: 179.058
SMILES: C1=CC=C(C=C1)C(=O)NCC(=O)O
InChI: 2-(benzoylamino)acetic acid
Instrument: TQD, Waters
Ion type: [M+H]+
Precursor m/z: 180.18
m/z	relative intensity
51	97
76	315
77	999
105	102
