Mass spectrum: Kaempferol-3-O-alpha-L-arabinoside; MS2; QqQ; negative; CE 20 V
Name: Kaempferol-3-O-alpha-L-arabinoside
Name: Kaem-3-Ara
Name: Kaempferol-3-O-alpha-L-arabinopyranoside
Class: CLASS1 Flavonoid
Class: CLASS2 Flavonol
Class: CLASS3 Kaempferol glycoside
Formula: C20H18O10
Exact mass: 418.089
SMILES: C1C(C(C(C(O1)OC2=C(OC3=CC(=CC(=C3C2=O)O)O)C4=CC=C(C=C4)O)O)O)O
InChI: 5,7-dihydroxy-2-(4-hydroxyphenyl)-3-[(2S,3R,4S,5S)-3,4,5-trihydroxyoxan-2-yl]oxychromen-4-one
Instrument: TQD, Waters
Ion type: [M-H]-
Precursor m/z: 417.39
m/z	relative intensity
284	74
416	397
417	999
418	189
