Mass spectrum: cysteinylglycine; MS2; QqQ; positive; CE 30 V
Name: cysteinylglycine
Name: Cys-Gly
Name: L-Cysteinylglycine
Name: (R)-2-Amino-3-(aminoacetyl)thiopropanoic Acid
Name: S-Glycyl-L-cysteine
Name: Glycine Cysteine Thioester
Name: S-(2-Amino-1-oxoethyl)cysteine
Class: CLASS1 Amino acid
Class: CLASS2 Glycine
Formula: C5H10N2O3S
Exact mass: 178.041
SMILES: C(C(C(=O)NCC(=O)O)N)S
InChI: 2-[[(2R)-2-amino-3-sulfanylpropanoyl]amino]acetic acid
Instrument: TQD, Waters
Ion type: [M+H]+
Precursor m/z: 179.18
m/z	relative intensity
59	90
75	287
76	999
87	60
179	34
