Mass spectrum: Quercetin-3-Galactoside-6''-Rhamnoside-3'''-Rhamnoside; MS2; QqQ; positive; CE 20 V
Name: Quercetin-3-Galactoside-6''-Rhamnoside-3'''-Rhamnoside
Name: Quer-3-Gal-6''-Rha-3'''-Rha
Class: CLASS1 Flavonoid
Class: CLASS2 Flavonol
Class: CLASS3 Quercetin glycoside
Formula: C34H42O20
Exact mass: 770.226
SMILES: no data
InChI: no data
Instrument: TQD, Waters
Ion type: [M+H]+
Precursor m/z: 771.73
m/z	relative intensity
293	40
316	254
317	999
318	67
478	184
479	403
480	301
625	245
626	71
769	57
770	279
771	724
772	536
773	149
