Mass spectrum: Salicylic Acid; MS2; QqQ; negative; CE 10 V
Name: Salicylic Acid
Name: SA
Name: Salicylate
Name: 2-Hydroxybenzoic acid
Name: o-Hydroxybenzoic acid
Name: 2-Carboxyphenol
Name: 2-Hydroxybenzenecarboxylic acid
Name: Phenol-2-carboxylic acid
Name: Rutranex
Name: Salonil
Name: Verrugon
Class: CLASS1 Other
Class: CLASS2 Benzoic acid
Class: CLASS3 Verrugon
Formula: C7H6O3
Exact mass: 138.031
SMILES: C1=CC=C(C(=C1)C(=O)O)O
InChI: 2-hydroxybenzoic acid
Instrument: TQD, Waters
Ion type: [M-H]-
Precursor m/z: 137.07
m/z	relative intensity
93	94
136	160
137	999
