Mass spectrum: Methylsuccinic acid ; MS2; QqQ; negative; CE 20 V
Name: Methylsuccinic acid 
Name: 2-Methylsuccinate
Name: Pyrotartaric Acid
Name: 2-Methylbutanedioic acid
Name: 1,2-Propanedicarboxylic acid
Name: Propane-1,2-dicarboxylic Acid
Class: CLASS1 Other
Class: CLASS2 Carboxylic acid
Class: CLASS3 Succinic acid
Formula: C5H8O4
Exact mass: 132.042
SMILES: CC(CC(=O)O)C(=O)O
InChI: 2-methylbutanedioic acid
Instrument: TQD, Waters
Ion type: [M-H]-
Precursor m/z: 131.07
m/z	relative intensity
87	999
130	171
131	356
