Mass spectrum: Kaempferol-3-Rhamnoside; MS2; QqQ; positive; CE 10 V
Name: Kaempferol-3-Rhamnoside
Name: Kaem-3-Rha
Name: Afzelin
Class: CLASS1 Flavonoid
Class: CLASS2 Flavonol
Class: CLASS3 Kaempferol glycoside
Formula: C21H20O10
Exact mass: 432.105
SMILES: CC1C(C(C(C(O1)OC2=C(OC3=CC(=CC(=C3C2=O)O)O)C4=CC=C(C=C4)O)O)O)O
InChI: 5,7-dihydroxy-2-(4-hydroxyphenyl)-3-[(2S,3R,4R,5R,6S)-3,4,5-trihydroxy-6-methyloxan-2-yl]oxychromen-4-one
Instrument: TQD, Waters
Ion type: [M+H]+
Precursor m/z: 433.41
m/z	relative intensity
287	999
432	157
433	689
434	159
