Mass spectrum: O-Phosphocholine; MS2; QqQ; positive; CE 10 V
Name: O-Phosphocholine
Name: Phosphocholine chloride calcium salt tetrahydrate
Name: Choline phosphate
Name: Phosphorylcholine
Name: N-Trimethyl-2-aminoethylphosphonate
Class: CLASS1 Other
Class: CLASS2 Coline
Class: CLASS3 Phosphorylcholine
Formula: C5H15NO4P
Exact mass: 184.073
SMILES: C[N+](C)(C)CCOP(=O)(O)O
InChI: trimethyl-(2-phosphonooxyethyl)azanium
Instrument: TQD, Waters
Ion type: [M+H]+
Precursor m/z: 184.2
m/z	relative intensity
183	111
184	999
