Mass spectrum: 1-Isothiocyanato-8-(methylsulfinyl)-octane; MS2; QqQ; positive; CE 50 V
Name: 1-Isothiocyanato-8-(methylsulfinyl)-octane
Name: 8-Methylsulfinyloctyl isothiocyanate
Class: CLASS1 Other
Class: CLASS2 Isothiocyanate
Formula: C10H19NOS2
Exact mass: 233.09
SMILES: no data
InChI: no data
Instrument: TQD, Waters
Ion type: [M+H]+
Precursor m/z: 234.27
m/z	relative intensity
29	51
40	263
41	999
43	57
54	256
55	820
56	40
57	35
64	41
65	70
67	78
68	300
69	626
70	48
72	95
80	32
82	32
100	45
101	32
107	33
108	119
122	37
