Mass spectrum: (2R)-2-Hydroxy-2-phenethylglucosinolate; MS2; QqQ; negative; CE 40 V
Name: (2R)-2-Hydroxy-2-phenethylglucosinolate
Name: Glucosibarin
Class: CLASS1 Glucosinolate
Class: CLASS2 Aliphatic glucosinolate
Formula: C15H21NO10S2
Exact mass: 439.06
SMILES: no data
InChI: no data
Instrument: TQD, Waters
Ion type: [M-H]-
Precursor m/z: 438.37
m/z	relative intensity
74	46
75	314
90	33
95	81
96	859
97	999
136	111
195	108
196	60
437	183
438	156
