Mass spectrum: N,N-Dimethylformamide; MS2; QqQ; positive; CE 10 V
Name: N,N-Dimethylformamide
Name: DMF
Name: DMFA
Name: N,N-Dimethylmethanamide
Name: Formyldimethylamine
Name: Formic acid dimethylamide
Class: CLASS1 Other
Class: CLASS2 Other
Class: CLASS3 Dimethylformamide
Formula: C3H7NO
Exact mass: 73.052
SMILES: CN(C)C=O
InChI: N,N-dimethylformamide
Instrument: TQD, Waters
Ion type: [M+H]+
Precursor m/z: 74.09
m/z	relative intensity
73	32
74	999
