Mass spectrum: D-alpha-Hydroxyisovaleric acid ; MS2; QqQ; negative; CE 10 V
Name: D-alpha-Hydroxyisovaleric acid 
Name: VAD
Name: D-alpha-Hydroxyisovalerate
Name: (R)-2-Hydroxy-3-methylbutyric acid
Name: (R)-2-Hydroxy-3-methylbutanoic acid
Class: CLASS1 Other
Class: CLASS2 Carboxylic acid
Class: CLASS3 Isovaleric acid
Formula: C5H10O3
Exact mass: 118.062
SMILES: CC(C)C(C(=O)O)O
InChI: (2R)-2-hydroxy-3-methylbutanoic acid
Instrument: TQD, Waters
Ion type: [M-H]-
Precursor m/z: 117.1
m/z	relative intensity
116	55
117	999
