Mass spectrum: 4-(Methylsulfinyl)but-3-enylglucosinolate; MS2; QqQ; negative; CE 20 V
Name: 4-(Methylsulfinyl)but-3-enylglucosinolate
Name: Glucoraphenin
Name: 4-Methylsufinyl-3-butenyl glucosinolate
Class: CLASS1 Glucosinolate
Class: CLASS2 Aliphatic glucosinolate
Formula: C12H21NO10S3
Exact mass: 435.032
SMILES: CS(=O)C=CCCC(=NOS(=O)(=O)O)SC1C(C(C(C(O1)CO)O)O)O
InChI: [[(E)-5-methylsulfinyl-1-[(2S,3R,4S,5S,6R)-3,4,5-trihydroxy-6-(hydroxymethyl)oxan-2-yl]sulfanylpent-4-enylidene]amino] hydrogen sulfate
Instrument: TQD, Waters
Ion type: [M-H]-
Precursor m/z: 434.34
m/z	relative intensity
97	31
433	415
434	999
435	191
