Mass spectrum: 4-Hydroxybenzoate; MS2; QqQ; negative; CE 10 V
Name: 4-Hydroxybenzoate
Name: p-Hydroxybenzoic acid
Name: 4-Hydroxybenzoic acid
Name: Hydroxybenzenecarboxylic acid
Class: CLASS1 Other
Class: CLASS2 Benzoic acid
Class: CLASS3 Hydroxybenzoic acid
Formula: C7H6O3
Exact mass: 138.031
SMILES: C1=CC(=CC=C1C(=O)O)O
InChI: 4-hydroxybenzoic acid
Instrument: TQD, Waters
Ion type: [M-H]-
Precursor m/z: 137.07
m/z	relative intensity
92	48
93	160
136	139
137	999
