Mass spectrum: 5-Methoxysalicylic acid; MS2; QqQ; negative; CE 20 V
Name: 5-Methoxysalicylic acid
Name: 5-Methoxysalicylate
Name: 2-Hydroxy-5-methoxybenzoic acid
Name: 5-Methoxy-2-hydroxybenzoic acid
Name: 6-Hydroxy-3-anisic Acid
Name: 5-O-Methylgentisic Acid
Class: CLASS1 Other
Class: CLASS2 Carboxylic acid
Class: CLASS3 Pyridoxic acid
Formula: C8H8O4
Exact mass: 168.042
SMILES: COC1=CC(=C(C=C1)O)C(=O)O
InChI: 2-hydroxy-5-methoxybenzoic acid
Instrument: TQD, Waters
Ion type: [M-H]-
Precursor m/z: 167.12
m/z	relative intensity
107	280
108	999
151	111
152	483
166	61
167	371
