Mass spectrum: DL-2-Hydroxyvaleric acid sodium salt hydrate; MS2; QqQ; negative; CE 10 V
Name: DL-2-Hydroxyvaleric acid sodium salt hydrate
Name: 2-hydroxy-pentanoic acid
Class: CLASS1 Other
Class: CLASS2 Carboxylic acid
Class: CLASS3 Valeric acid
Formula: C5H10O3
Exact mass: 118.062
SMILES: CCCC(C(=O)O)O
InChI: 2-hydroxypentanoic acid
Instrument: TQD, Waters
Ion type: [M-H]-
Precursor m/z: 117.1
m/z	relative intensity
117	999
