Mass spectrum: Betaine; MS2; QqQ; positive; CE 10 V
Name: Betaine
Name: Trimethylglycine
Name: Trimethylammonioacetate
Name: Oxyneurine
Name: (Carboxymethyl)trimethylammonium inner salt
Name: alpha-Earleine
Name: Trimethylaminoacetic acid
Name: Abromine
Name: Glycylbetaine
Name: Lycine
Name: Jortaine
Name: Trimethylglycocoll
Class: CLASS1 Amino acid
Class: CLASS2 Glycine
Formula: C5H11NO2
Exact mass: 117.078
SMILES: C[N+](C)(C)CC(=O)[O-]
InChI: 2-trimethylazaniumylacetate
Instrument: TQD, Waters
Ion type: [M+H]+
Precursor m/z: 118.12
m/z	relative intensity
118	999
