Mass spectrum: 3-(4-Hydroxyphenyl)-propionic acid; MS2; QqQ; positive; CE 10 V
Name: 3-(4-Hydroxyphenyl)-propionic acid
Name: HPPA
Name: Phloretate
Name: Phloretic acid
Name: 3-(p-Hydroxyphenyl)propionic acid
Name: 4-Hydroxyhydrocinnamic acid
Name: 2,3-Dihydro-p-coumaric Acid
Name: 4-(2-Carboxyethyl)phenol
Name: Desaminotyrosine
Name: 4-Hydroxybenzenepropanoic acid
Name: 4-Hydroxyphenylpropionic acid
Class: CLASS1 Other
Class: CLASS2 Carboxylic acid
Class: CLASS3 Propionic acid
Formula: C9H10O3
Exact mass: 166.062
SMILES: C1=CC(=CC=C1CCC(=O)O)O
InChI: 3-(4-hydroxyphenyl)propanoic acid
Instrument: TQD, Waters
Ion type: [M+H]+
Precursor m/z: 167.23
m/z	relative intensity
149	78
166	85
167	999
