Mass spectrum: glucocerebrosides; MS2; QqQ; positive; CE 60 V
Name: glucocerebrosides
Name: Glucosyl (E,E)N(2-hydroxyhexadecanoyl)sphing-4,8-dienine
Class: CLASS1 Other
Class: CLASS2 Phospholipid
Class: CLASS3 Cerebroside
Formula: -
Exact mass: 52674389.901
SMILES: no data
InChI: no data
Instrument: TQD, Waters
Ion type: [M+H]+
Precursor m/z: 715.04
m/z	relative intensity
56	46
69	59
81	80
82	33
95	81
97	37
121	58
135	55
251	58
261	143
262	999
263	222
