Mass spectrum: Quercetin-3-O-alpha-L-rhamnopyranosyl(1-2)-beta-D-glucopyranoside-7-O-alpha-L-rhamnopyranoside; MS2; QqQ; positive; CE 20 V
Name: Quercetin-3-O-alpha-L-rhamnopyranosyl(1-2)-beta-D-glucopyranoside-7-O-alpha-L-rhamnopyranoside
Name: Quer-3-(Rha-Glu)-7-Rha
Name: Quercetin-3-neohesperidoside-7-rhamnoside 
Class: CLASS1 Flavonoid
Class: CLASS2 Flavonol
Class: CLASS3 Quercetin glycoside
Formula: C33H40O20
Exact mass: 756.211
SMILES: no data
InChI: no data
Instrument: TQD, Waters
Ion type: [M+H]+
Precursor m/z: 757.68
m/z	relative intensity
147	47
448	203
449	999
450	231
610	91
611	345
612	256
756	53
757	428
758	194
759	66
