Mass spectrum: glucocerebrosides; MS2; QqQ; positive; CE 30 V
Name: glucocerebrosides
Name: Glucosyl (E,E)N(2-hydroxyhexadecanoyl)sphing-4,8-dienine
Class: CLASS1 Other
Class: CLASS2 Phospholipid
Class: CLASS3 Cerebroside
Formula: -
Exact mass: 0
SMILES: no data
InChI: no data
Instrument: TQD, Waters
Ion type: [M+H]+
Precursor m/z: 715.04
m/z	relative intensity
262	247
515	34
516	84
517	204
518	67
519	39
534	669
535	404
695	64
696	574
697	999
698	176
