Mass spectrum: Quercetin-3-O-beta-glucopyranosyl-7-O-alpha-rhamnopyranoside; MS2; QqQ; positive; CE 60 V
Name: Quercetin-3-O-beta-glucopyranosyl-7-O-alpha-rhamnopyranoside
Name: Quer-3-Glc-7-Rha
Name: SPECIES
Name: quercetin-3-glucoside-7-rhamnoside
Class: CLASS1 Flavonoid
Class: CLASS2 Flavonol
Class: CLASS3 Quercetin glycoside
Formula: C27H30O16
Exact mass: 610.153
SMILES: no data
InChI: no data
Instrument: TQD, Waters
Ion type: [M+H]+
Precursor m/z: 611.52
m/z	relative intensity
85	272
145	32
301	135
302	814
303	999
304	206
