Mass spectrum: alpha-D-glucose-1-phosphate dipotassium salt dihydate; MS2; QqQ; negative; CE 50 V
Name: alpha-D-glucose-1-phosphate dipotassium salt dihydate
Name: alpha-Glu-1P
Name: alpha-D-Glucopyranose 1-phosphate
Class: CLASS1 Other
Class: CLASS2 Suger phosphate
Class: CLASS3 Glucose phosphate
Formula: C6H13O9P
Exact mass: 260.029
SMILES: C(C1C(C(C(C(O1)OP(=O)(O)O)O)O)O)O
InChI: [(3R,4S,5S,6R)-3,4,5-trihydroxy-6-(hydroxymethyl)oxan-2-yl] dihydrogen phosphate
Instrument: TQD, Waters
Ion type: [M-H]-
Precursor m/z: 259.21
m/z	relative intensity
78	133
79	999
