Mass spectrum: L-Citrulline; MS2; QqQ; positive; CE 10 V
Name: L-Citrulline
Name: Cit
Name: Orn(carbamoyl)
Name: N5-Carbamoyl-L-ornithine
Name: delta-Ureidonorvaline
Name: L-2-Amino-5-ureidovaleric acid
Name: (S)-2-Amino-5-ureidopentanoic acid
Name: Sitrulline
Class: CLASS1 Amino acid
Class: CLASS2 Citrulline
Formula: C6H13N3O3
Exact mass: 175.095
SMILES: C(CC(C(=O)O)N)CNC(=O)N
InChI: (2S)-2-amino-5-(carbamoylamino)pentanoic acid
Instrument: TQD, Waters
Ion type: [M+H]+
Precursor m/z: 176.21
m/z	relative intensity
159	502
175	34
176	999
