Mass spectrum: L-Canavanine ; MS2; QqQ; negative; CE 10 V
Name: L-Canavanine 
Name: L-alpha-Amino-gamma-(guanidinooxy)-n-butyric acid
Name: O-((Aminoiminomethyl)amino)-L-homoserine
Class: CLASS1 Amino acid
Class: CLASS2 Peptide
Class: CLASS3 Oligopeptide
Formula: C5H12N4O3
Exact mass: 176.09
SMILES: C(CON=C(N)N)C(C(=O)O)N
InChI: (2S)-2-amino-4-(diaminomethylideneamino)oxybutanoic acid
Instrument: TQD, Waters
Ion type: [M-H]-
Precursor m/z: 175.19
m/z	relative intensity
118	72
174	58
175	999
