Mass spectrum: Petunidin; MS2; QqQ; negative; CE 10 V
Name: Petunidin
Name: Pt
Name: Petunidol
Name: Myrtillidin
Name: 3,3',4',5,7-Pentahydroxy-5'-methoxy flavylium
Name: 2-(3,4-Dihydroxy-5-methoxyphenyl)-3,5,7-trihydroxy-1-benzopyrylium 
Class: CLASS1 Flavonoid
Class: CLASS2 Anthocyanin
Class: CLASS3 Petunidin
Formula: C16H13O7
Exact mass: 317.066
SMILES: COC1=CC(=CC(=C1O)O)C2=C(C=C3C(=CC(=CC3=[O+]2)O)O)O
InChI: no data
Instrument: TQD, Waters
Ion type: [M-H]-
Precursor m/z: 316.25
m/z	relative intensity
316	999
