Mass spectrum: gamma-Glu-Cys; MS2; Q-Tof; [M+H]+
Name: gamma-Glu-Cys
Name: L-gamma-Glutamyl-L-cysteine
Name: Des-Gly-glutathione Reduced Form
Name: 5-L-Glutamyl-L-cysteine
Name: L-gamma-Glutamylcysteine
Name: (2S)-2-amino-5-[[(2R)-1-hydroxy-1-oxo-3-sulfanylpropan-2-yl]amino]-5-oxopentanoic acid
Class: CLASS1 Amino acid
Class: CLASS2 Cysteine
Formula: C8H14N2O5S
Exact mass: 250.27
SMILES: C(CC(=O)NC(CS)C(=O)O)C(C(=O)O)N
InChI: InChI=1/C8H14N2O5S/c9-4(7(12)13)1-2-6(11)10-5(3-16)8(14)15/h4-5,16H,1-3,9H2,(H,10,11)(H,12,13)(H,14,15)/t4-,5-/m0/s1/f/h10,12,14H
Instrument: Q-Tof Premier, Waters
Ion type: [M+H]+
Precursor m/z: 251.07014
m/z	relative intensity
74.0229	90
84.0455	999
85.0449	83
120.0135	81
122.029	111
130.0507	236
151.986	112
186.0245	110
188.0435	50
241.0334	122
251.0701	51
