Mass spectrum: 2'-Deoxycytidine-5'-diphosphate sodium salt; MS2; Q-Tof; [M+H]+
Name: 2'-Deoxycytidine-5'-diphosphate sodium salt
Class: CLASS1 Other
Class: CLASS2 Nucleotide
Class: CLASS3 Cytidine phosphate
Formula: C9H15N3O10P2
Exact mass: 387.18
SMILES: C1C(C(OC1N2C=CC(=NC2=O)N)COP(=O)(O)OP(=O)(O)O)O
InChI: InChI=1S/C9H15N3O10P2/c10-7-1-2-12(9(14)11-7)8-3-5(13)6(21-8)4-20-24(18,19)22-23(15,16)17/h1-2,5-6,8,13H,3-4H2,(H,18,19)(H2,10,11,14)(H2,15,16,17)/t5-,6+,8+/m0/s1 
Instrument: Q-Tof Premier, Waters
Ion type: [M+H]+
Precursor m/z: 388.03107
m/z	relative intensity
105.0778	999
106.0825	149
121.073	146
387.1988	373
388.2008	197
