Mass spectrum: 1-Aminocyclopropane-1-carboxylic acid; MS2; Q-Tof; [M+H]+
Name: 1-Aminocyclopropane-1-carboxylic acid
Name: ACPC
Name: 1-Aminocyclopropanecarboxylic acid
Name: 1-aminocyclopropane-1-carboxylic acid
Class: CLASS1 Other
Class: CLASS2 Carboxylic acid
Class: CLASS3 Cyclopropanecarboxylic acid
Formula: C4H7NO2
Exact mass: 101.1
SMILES: C1CC1(C(=O)O)N
InChI: InChI=1/C4H7NO2/c5-4(1-2-4)3(6)7/h1-2,5H2,(H,6,7)/f/h6H
Instrument: Q-Tof Premier, Waters
Ion type: [M+H]+
Precursor m/z: 102.05548
m/z	relative intensity
56.0514	74
102.0555	999
