Mass spectrum: Kaempferide; MS2; Q-Tof; [M+H]+
Name: Kaempferide
Name: Kaer
Name: 3,5,7-trihydroxy-4'-methoxyflavone
Name: Kaempferid
Name: Kaempferol 4'-methyl ether
Name: 4'-O-Methylkaempferol
Name: 4H-1-Benzopyran-4-one, 3,5,7-trihydroxy-2-(4-methoxyphenyl)-
Name: 3,5,7-trihydroxy-2-(4-methoxyphenyl)chromen-4-one
Class: CLASS1 Flavonoid
Class: CLASS2 Flavonol
Class: CLASS3 Kaempferol
Formula: C16H12O6
Exact mass: 300.28
SMILES: COC1=CC=C(C=C1)C2=C(C(=O)C3=C(C=C(C=C3O2)O)O)O
InChI: InChI=1/C16H12O6/c1-21-10-4-2-8(3-5-10)16-15(20)14(19)13-11(18)6-9(17)7-12(13)22-16/h2-7,17-18,20H,1H3
Instrument: Q-Tof Premier, Waters
Ion type: [M+H]+
Precursor m/z: 301.07119
m/z	relative intensity
153.0201	117
201.0568	54
229.0518	158
230.0592	118
258.0548	113
286.0504	74
301.0712	999
