Mass spectrum: Pyridoxamine dihydrochloride  ; MS2; Q-Tof; [M+H]+
Name: Pyridoxamine dihydrochloride  
Name: Pyridoxylamine dihydrochloride
Name: 4-(Aminomethyl)-5-hydroxy-6-methyl-3-pyridinemethanol dihydrochloride
Name: 4-(aminomethyl)-5-(hydroxymethyl)-2-methylpyridin-3-ol
Class: CLASS1 Other
Class: CLASS2 Other
Class: CLASS3 Pyridoxamine
Formula: C8H12N2O2
Exact mass: 168.19
SMILES: CC1=NC=C(C(=C1O)CN)CO
InChI: InChI=1/C8H12N2O2/c1-5-8(12)7(2-9)6(4-11)3-10-5/h3,11-12H,2,4,9H2,1H3
Instrument: Q-Tof Premier, Waters
Ion type: [M+H]+
Precursor m/z: 169.09767
m/z	relative intensity
152.0691	162
169.0946	999
