Mass spectrum: Anthranilic acid; MS2; Q-Tof; [M+H]+
Name: Anthranilic acid
Name: 2-AA
Name: o‚ÄêAminobenzoic Acid
Name: Vitamin L1
Name: 2-Carboxyaniline
Name: 2-aminobenzoate
Name: 2-aminobenzoic acid
Class: CLASS1 Other
Class: CLASS2 Vitamin
Formula: C7H7NO2
Exact mass: 137.14
SMILES: C1=CC=C(C(=C1)C(=O)O)N
InChI: InChI=1/C7H7NO2/c8-6-4-2-1-3-5(6)7(9)10/h1-4H,8H2,(H,9,10)/f/h9H
Instrument: Q-Tof Premier, Waters
Ion type: [M+H]+
Precursor m/z: 138.05548
m/z	relative intensity
65.0399	109
92.0502	354
120.044	999
138.0555	22
