Mass spectrum: Histamine; MS2; Q-Tof; [M+H]+
Name: Histamine
Name: 2-(4-Imidazolyl)ethylamine
Name: 2-Imidazol-4-ylethylamine
Name: 1H-Imidazole-4-ethanamine
Name: Eramine
Name: beta.-Imidazolyl-4-ethylamine
Name: beta-Aminoethylglyoxaline
Name: Eramin
Name: Ergamine
Name: Ergotidine
Name: Theramine
Name: 2-(3H-imidazol-4-yl)ethanamine
Class: CLASS1 Alkaloid
Class: CLASS2 Imidazole
Class: CLASS3 Histamine
Formula: C5H9N3
Exact mass: 111.15
SMILES: C1=C(NC=N1)CCN
InChI: InChI=1/C5H9N3/c6-2-1-5-3-7-4-8-5/h3-4H,1-2,6H2,(H,7,8)/f/h8H
Instrument: Q-Tof Premier, Waters
Ion type: [M+H]+
Precursor m/z: 112.08744
m/z	relative intensity
95.0597	42
112.0269	35
112.0874	999
