Mass spectrum: Allantoin; MS2; Q-Tof; [M+H]+
Name: Allantoin
Name: Glyoxylic Acid Diureide
Name: 5-Ureidohydantoin
Name: Glyoxylidiureide
Name: Alantan
Name: Allantol
Name: Cordianine
Name: (2,5-Dioxo-4-imidazolidinyl)urea
Name: Sebical
Name: Hemocane
Name: cordanine
Name: (2,5-dioxoimidazolidin-4-yl)urea
Class: CLASS1 Other
Class: CLASS2 Other
Class: CLASS3 Allantoin
Formula: C4H6N4O3
Exact mass: 158.12
SMILES: C1(C(=O)NC(=O)N1)NC(=O)N
InChI: InChI=1/C4H6N4O3/c5-3(10)6-1-2(9)8-4(11)7-1/h1H,(H3,5,6,10)(H2,7,8,9,11)/f/h6-8H,5H2
Instrument: Q-Tof Premier, Waters
Ion type: [M+H]+
Precursor m/z: 159.05179
m/z	relative intensity
116.0457	103
158.9885	112
159.0518	999
