Mass spectrum: Gly-Gly; MS2; Q-Tof; [M+H]+
Name: Gly-Gly
Name: Glycylglycine
Name: Diglycine
Name: 2-(Aminoacetamido)acetic Acid
Name: Glycine dipeptide
Name: 2-[(2-aminoacetyl)amino]acetic acid
Class: CLASS1 Amino acid
Class: CLASS2 Glycine
Formula: C4H8N2O3
Exact mass: 132.12
SMILES: C(C(=O)NCC(=O)O)N
InChI: InChI=1/C4H8N2O3/c5-1-3(7)6-2-4(8)9/h1-2,5H2,(H,6,7)(H,8,9)/f/h6,8H
Instrument: Q-Tof Premier, Waters
Ion type: [M+H]+
Precursor m/z: 133.06129
m/z	relative intensity
112.0165	89
133.0613	999
