Mass spectrum: 3-cyanopyridine; MS2; Q-Tof; [M+H]+
Name: 3-cyanopyridine
Name: 3-Pyridinecarbonitrile
Name: Nicotinic acid nitrile
Name: Nicotinonitrile
Name: Pyridine-3-carbonitrile
Name: beta-Pyridyl Cyanide
Name: 3-Azabenzonitrile
Name: 3-Pyridinecarbonitrile
Name: pyridine-3-carbonitrile
Class: CLASS1 Other
Class: CLASS2 Other
Class: CLASS3 Pyridine
Formula: C6H4N2
Exact mass: 104.11
SMILES: C1=CC(=CN=C1)C#N
InChI: InChI=1/C6H4N2/c7-4-6-2-1-3-8-5-6/h1-3,5H
Instrument: Q-Tof Premier, Waters
Ion type: [M+H]+
Precursor m/z: 105.04525
m/z	relative intensity
78.0352	377
105.0452	999
