Mass spectrum: Quercetin-7-O-rhamnoside; MS2; Q-Tof; [M+H]+
Name: Quercetin-7-O-rhamnoside
Name: Quer-7-Rha
Name: Vincetoxicoside B
Name: 2-(3,4-dihydroxyphenyl)-3,5-dihydroxy-7-[(2S,3R,4R,5R,6S)-3,4,5-trihydroxy-6-methyloxan-2-yl]oxychromen-4-one
Class: CLASS1 Flavonoid
Class: CLASS2 Flavonol
Class: CLASS3 Quercetin glycoside
Formula: C21H20O11
Exact mass: 448.38
SMILES: CC1C(C(C(C(O1)OC2=CC(=C3C(=C2)OC(=C(C3=O)O)C4=CC(=C(C=C4)O)O)O)O)O)O
InChI: InChI=1/C21H20O11/c1-7-15(25)17(27)19(29)21(30-7)31-9-5-12(24)14-13(6-9)32-20(18(28)16(14)26)8-2-3-10(22)11(23)4-8/h2-7,15,17,19,21-25,27-29H,1H3/t7-,15-,17+,19+,21-/m0/s1
Instrument: Q-Tof Premier, Waters
Ion type: [M+H]+
Precursor m/z: 449.10838
m/z	relative intensity
137.0238	37
153.0173	60
165.017	39
201.0551	25
229.0495	60
257.0439	32
287.0565	21
303.0506	999
304.0534	31
449.1084	119
