Mass spectrum: Delphinidin-3-O-(2''-O-beta-xylopyranosyl-beta-glucopyranoside); MS2; Q-Tof; [M]+
Name: Delphinidin-3-O-(2''-O-beta-xylopyranosyl-beta-glucopyranoside)
Name: Dp 3-Samb
Name: delphinidin-3-sambubioside
Name: Cannabinin
Name: Hibiscin
Class: CLASS1 Flavonoid
Class: CLASS2 Anthocyanin
Class: CLASS3 Delphinidin glycoside
Formula: C26H29O16
Exact mass: 597.5
SMILES: c
InChI: 1/C4H9NO2/c5-3-1-2-4(6)7/h1-3,5H2,(H,6,7)/f/h6H
Instrument: Q-Tof Premier, Waters
Ion type: [M]+
Precursor m/z: 597.14553
m/z	relative intensity
229.0505	20
257.0449	20
303.0499	999
304.049	12
597.1455	202
