Mass spectrum: D,L-sulforaphane; MS2; Q-Tof; [M+H]+
Name: D,L-sulforaphane
Name: Sulforaphan
Name: Sulforafan
Name: 1-Isothiocyanato-4-(methylsulfinyl)butane
Name: 4-Methylsulfinylbutyl isothiocyanate
Name: 4-methylsulphinylbutyl glucosinolate
Name: 1-isothiocyanato-4-methylsulfinylbutane
Class: CLASS1 Other
Class: CLASS2 Isothiocyanate
Formula: C6H11NOS2
Exact mass: 177.29
SMILES: CS(=O)CCCCN=C=S
InChI: InChI=1/C6H11NOS2/c1-10(8)5-3-2-4-7-6-9/h2-5H2,1H3
Instrument: Q-Tof Premier, Waters
Ion type: [M+H]+
Precursor m/z: 178.036
m/z	relative intensity
71.9899	548
114.0366	999
119.0526	139
