Mass spectrum: 6-Hydroxynicotinic Acid; MS2; Q-Tof; [M-H]-
Name: 6-Hydroxynicotinic Acid
Name: 6-Hydroxynicotinate
Name: 6-Hydroxypyridine-3-carboxylic acid
Name: 2-Hydroxy-5-pyridinecarboxylic acid
Name: ,6-Dihydro-6-oxo-3-pyridinecarboxylic acid
Name: 6-oxo-1H-pyridine-3-carboxylic acid
Class: CLASS1 Other
Class: CLASS2 Vitamin
Formula: C6H5NO3
Exact mass: 139.11
SMILES: C1=CC(=O)NC=C1C(=O)O
InChI: InChI=1/C6H5NO3/c8-5-2-1-4(3-7-5)6(9)10/h1-3H,(H,7,8)(H,9,10)/f/h7,9H
Instrument: Q-Tof Premier, Waters
Ion type: [M-H]-
Precursor m/z: 138.01914
m/z	relative intensity
94.0297	999
138.0191	188
