Mass spectrum: Quercetin-3-Galactoside-6-Rhamnoside-3'''-Rhamnoside; MS2; Q-Tof; [M-H]-
Name: Quercetin-3-Galactoside-6''-Rhamnoside-3'''-Rhamnoside
Name: Quer-3-Gal-6''-Rha-3'''-Rha
Class: CLASS1 Flavonoid
Class: CLASS2 Flavonol
Class: CLASS3 Quercetin glycoside
Formula: C34H42O20
Exact mass: 770.7
SMILES: c
InChI: 1/C4H9NO2/c5-3-1-2-4(6)7/h1-3,5H2,(H,6,7)/f/h6H
Instrument: Q-Tof Premier, Waters
Ion type: [M-H]-
Precursor m/z: 769.21911
m/z	relative intensity
314.0428	384
315.0503	560
316.0547	61
769.2191	999
770.2242	308
