Mass spectrum: Kaempferol-3-Glucoside-2-Rhamnoside,-7-Rhamnoside; MS2; Q-Tof; [M-H]-
Name: Kaempferol-3-Glucoside-2''-Rhamnoside-7-Rhamnoside
Name: Kaem-3-Glc-2''-Rha-7-Rha
Class: CLASS1 Flavonoid
Class: CLASS2 Flavonol
Class: CLASS3 Kaempferol glycoside
Formula: C33H40O19
Exact mass: 740.68
SMILES: c
InChI: 1/C4H9NO2/c5-3-1-2-4(6)7/h1-3,5H2,(H,6,7)/f/h6H
Instrument: Q-Tof Premier, Waters
Ion type: [M-H]-
Precursor m/z: 739.20855
m/z	relative intensity
283.0245	103
284.0317	279
285.0396	146
430.0906	322
431.0957	76
593.1517	999
594.157	291
739.2086	60
