Mass spectrum: Isorhamnetin-3-Glucoside-4'-Glucoside; MS2; Q-Tof; [M-H]-
Name: Isorhamnetin-3-Glucoside-4'-Glucoside
Name: Isor-3-Glc-4'-Glc
Name: Isorhamnetin 3,4'-diglucoside
Name: Dactylin
Name: Dactilin
Class: CLASS1 Flavonoid
Class: CLASS2 Flavonol
Class: CLASS3 Isorhamnetin glycoside
Formula: C28H32O16
Exact mass: 640.54
SMILES: c
InChI: 1/C4H9NO2/c5-3-1-2-4(6)7/h1-3,5H2,(H,6,7)/f/h6H
Instrument: Q-Tof Premier, Waters
Ion type: [M-H]-
Precursor m/z: 623.16121
m/z	relative intensity
299.0186	72
300.0281	100
314.0449	388
315.0522	999
316.0577	130
623.1612	86
