Mass spectrum: N-Formyl-L-methionine; MS2; Q-Tof; [M-H]-
Name: N-Formyl-L-methionine
Name: fMet
Name: For-Met
Name: (S)-2-Formylamino-4-(methylthio)butanoic Acid
Name: (2S)-2-formamido-4-methylsulfanylbutanoic acid
Class: CLASS1 Amino acid
Class: CLASS2 Methionine
Formula: C6H11NO3S
Exact mass: 177.22
SMILES: CSCCC(C(=O)O)NC=O
InChI: InChI=1/C6H11NO3S/c1-11-3-2-5(6(9)10)7-4-8/h4-5H,2-3H2,1H3,(H,7,8)(H,9,10)/t5-/m0/s1/f/h7,9H
Instrument: Q-Tof Premier, Waters
Ion type: [M-H]-
Precursor m/z: 176.03816
m/z	relative intensity
84.0466	207
98.025	775
128.0352	815
176.0382	999
