Mass spectrum: D-beta-homophenylalanine-HCl; MS2; Q-Tof; [M-H]-
Name: D-beta-homophenylalanine-HCl
Name: (R)-3-Amino-4-phenylbutyric acid hydrochloride
Class: CLASS1 Amino acid
Class: CLASS2 Phenylalanine
Formula: C10H13NO2
Exact mass: 179.22
SMILES: c
InChI: 1/C4H9NO2/c5-3-1-2-4(6)7/h1-3,5H2,(H,6,7)/f/h6H
Instrument: Q-Tof Premier, Waters
Ion type: [M-H]-
Precursor m/z: 178.08682
m/z	relative intensity
86.0257	74
91.0554	282
117.0706	999
177.8601	295
178.0868	596
