Mass spectrum: L-Homocarnosine; MS2; Q-Tof; [M-H]-
Name: L-Homocarnosine
Name: GABA-His
Name: gamma-Aminobutyryl-L-histidine
Name: gamma-aminobutyrylhistidine
Name: 2-(4-aminobutanoylamino)-3-(3H-imidazol-4-yl)propanoic acid
Class: CLASS1 Amino acid
Class: CLASS2 Carnosine
Formula: C10H16N4O3
Exact mass: 240.26
SMILES: C1=C(NC=N1)CC(C(=O)O)NC(=O)CCCN
InChI: InChI=1/C10H16N4O3/c11-3-1-2-9(15)14-8(10(16)17)4-7-5-12-6-13-7/h5-6,8H,1-4,11H2,(H,12,13)(H,14,15)(H,16,17)/f/h13-14,16H
Instrument: Q-Tof Premier, Waters
Ion type: [M-H]-
Precursor m/z: 239.11443
m/z	relative intensity
81.0465	137
110.0723	999
154.0617	761
239.1144	712
