Mass spectrum: alpha-D-glucose-1-phosphate dipotassium salt dihydate; MS2; Q-Tof; [M-H]-
Name: alpha-D-glucose-1-phosphate dipotassium salt dihydate
Name: alpha-Glu-1P
Name: alpha-D-Glucopyranose 1-phosphate
Name: [(3R,4S,5S,6R)-3,4,5-trihydroxy-6-(hydroxymethyl)oxan-2-yl] dihydrogen phosphate
Class: CLASS1 Other
Class: CLASS2 Suger phosphate
Class: CLASS3 Glucose phosphate
Formula: C6H13O9P
Exact mass: 260.14
SMILES: C(C1C(C(C(C(O1)OP(=O)(O)O)O)O)O)O
InChI: InChI=1/C6H13O9P/c7-1-2-3(8)4(9)5(10)6(14-2)15-16(11,12)13/h2-10H,1H2,(H2,11,12,13)/t2-,3-,4+,5-,6u/m1/s1/f/h11-12H
Instrument: Q-Tof Premier, Waters
Ion type: [M-H]-
Precursor m/z: 259.02192
m/z	relative intensity
78.9599	999
96.9702	229
138.9801	92
241.0119	150
259.0219	299
