Mass spectrum: 10-Debenzoyl-10-acetyl brevifoliol; MS2; QqQ; [M+H]+; 25V
Name: 10-Debenzoyl-10-acetyl brevifoliol
Class: CLASS1 Terpenoid
Class: CLASS2 Diterpenoid
Class: CLASS3 Brevifoliol
Formula: C26H38O9
Exact mass: 494.25 
Ion type: [M+H]+
Precursor m/z: 495
m/z	relative intensity
221	55
239	72
279	70
299	65
317	100
357	40
399	52
417	55
435	22
477	23
495	12
