Mass spectrum: p-Coumaroyl-caffeoylglycerol; MS2; QIT; [M-H]-; n.d.
Name: p-Coumaroyl-caffeoylglycerol
Class: CLASS1 Phenylpropanoid
Class: CLASS2 Phenylpropanoid ester
Class: CLASS3 Glycerol
Formula: C21H20O8
Exact mass: 400.12 
Ion type: [M-H]-
Precursor m/z: 399
m/z	relative intensity
399	100
253	55
163	18
235	16
145	4
