Mass spectrum: Dicaffeoylquinic acid; MS2; QIT; [M-H]-; n.d.
Name: Dicaffeoylquinic acid
Class: CLASS1 Phenylpropanoid
Class: CLASS2 Phenylpropanoid ester
Class: CLASS3 Quinic acid
Formula: C25H24O12
Exact mass: 516.13 
Ion type: [M-H]-
Precursor m/z: 515
m/z	relative intensity
515	33
353	84
341	100
335	10
323	1
179	68
161	1
191	21
173	5
