Mass spectrum: L-Asparagine; MS2; QqQ; [M-H]-; -12
Name: L-Asparagine
Class: CLASS1 Amino acid
Class: CLASS2 Asparagine
Formula: C4H8N2O3
Exact mass: 132.05 
Ion type: [M-H]-
Precursor m/z: 131
m/z	relative intensity
113	100
114	84
70	43
42	29
58	15
