Mass spectrum: Silychristin B; MS2; QIT; [M-H]-; 50%
Name: Silychristin B
Class: CLASS1 Flavonoid
Class: CLASS2 Other
Class: CLASS3 Silychristin
Formula: C25H22O10
Exact mass: 482.12 
Ion type: [M-H]-
Precursor m/z: 481
m/z	relative intensity
156	1
179	2
337	17
355	100
419	4
451	15
463	67
482	2
