Mass spectrum: Lucidenic acid A; MS2; QIT; [M-H]-; 30->50%
Name: Lucidenic acid A
Class: CLASS1 Terpenoid
Class: CLASS2 Triterpenoid
Class: CLASS3 Lucidenic acid 
Formula: C27H38O6
Exact mass: 458.27 
Ion type: [M-H]-
Precursor m/z: 457
m/z	relative intensity
457	100
442	14
439	100
421	25
395	43
383	24
329	7
323	6
287	56
285	12
261	34
258	13
247	7
209	14
193	15
149	15
