Mass spectrum: 4-Hydroxybenzoylcholine; MS2; QIT; [M+Na]+; 15->55V
Name: 4-Hydroxybenzoylcholine
Name: Ethanaminium, 2-[(4-hydroxybenzoyl)oxy]-N,N,N-trimethyl-
Class: CLASS1 Phenylpropanoid
Class: CLASS2 Phenylpropanoid ester
Class: CLASS3 Choline
Formula: C12H18N1O3
Exact mass: 224.13 
Precursor m/z: 224.13
m/z	relative intensity
224.13	49
165.056	100
121.029	11
