Mass spectrum: 8-(Methylsulfinyl)octanenitrile; MS2; QIT; [M+Na]+; 15->55V
Name: 8-(Methylsulfinyl)octanenitrile
Class: CLASS1 Other
Class: CLASS2 Other
Class: CLASS3 Other
Formula: C19H18N1O1S1
Exact mass: 308.11 
Precursor m/z: 188.113
m/z	relative intensity
188.113	25
124.109	83
107.085	48
96.082	8
91.054	12
83.084	19
82.067	40
81.072	30
79.055	100
67.055	22
65.006	36
55.056	20
