Mass spectrum: Methyl red(to be removed); MS2; QIT; [M+H]+; 50%
Name: Methyl red(to be removed)
Class: CLASS1 Other
Class: CLASS2 Other
Class: CLASS3 Other
Formula: C15H15N3O2
Exact mass: 269.12 
Ion type: [M+H]+
Precursor m/z: 270
m/z	relative intensity
209	100
148	2
153	30
165	10
181	35
196	45
224	60
252	15
