Mass spectrum: 2,2'-Dihydroxychalcone; MS2; QIT; [M-H]-; 5->10%
Name: 2,2'-Dihydroxychalcone
Class: CLASS1 Flavonoid
Class: CLASS2 Chalcone
Class: CLASS3 Chalcone
Formula: C15H12O3
Exact mass: 240.08 
Ion type: [M-H]-
Precursor m/z: 239
m/z	relative intensity
239	8
221	1
195	22
93	100
119	50
145	9
133	4
