Mass spectrum: Oripavine; MS2; QIT; [M+H]+; 16%
Name: Oripavine
Class: CLASS1 Alkaloid
Class: CLASS2 Benzylisoquinoline
Class: CLASS3 Oripavine
Formula: C18H19N1O3
Exact mass: 297.14 
Ion type: [M+H]+
Precursor m/z: 298
m/z	relative intensity
267	100
255	10
241	10
249	20
223	34
266	8
237	34
