Mass spectrum: Symplocoside like saponin 2a; MS2; LIT; [M+Na]+; 100V
Name: Symplocoside like saponin 2a
Class: CLASS1 Flavonoid
Class: CLASS2 Flavonol
Class: CLASS3 Symplocoside
Formula: C61H96O22
Exact mass: 1180.64 
Ion type: [M+Na]+
Precursor m/z: 1203
m/z	relative intensity
1035	100
581	100
521	100
449	100
419	100
389	100
359	100
287	100
