Mass spectrum: (+)-N-[(E)-Cinnamoyl]-L-aspartic acid; MS2; QIT; [M+H]+; n.d.
Name: (+)-N-[(E)-Cinnamoyl]-L-aspartic acid
Name: (+)-N-[(E)-cinnamoyl]-L-aspartic acid
Class: CLASS1 Amino acid
Class: CLASS2 Aspartic acid
Formula: C13H13N1O5
Exact mass: 263.08 
Ion type: [M+H]+
Precursor m/z: 264
m/z	relative intensity
264	100
527	65
549	20
131	20
