Mass spectrum: Choline; MS2; QIT; [M+Na]+; 15->55V
Name: Choline
Class: CLASS1 Other
Class: CLASS2 Choline
Formula: C5H14N1O1
Exact mass: 104.11 
Precursor m/z: 104.107
m/z	relative intensity
104.107	16
60.081	100
59.074	3
58.066	7
45.035	9
44.051	1
