Mass spectrum: Luteolin 6-C-(6-malonyl)hexoside-8-C-hexoside; MS2; QIT; [M-H]-; 25->30%
Name: Luteolin 6-C-(6-malonyl)hexoside-8-C-hexoside
Class: CLASS1 Flavonoid
Class: CLASS2 Flavone
Class: CLASS3 Luteolin glycoside
Formula: C30H32O19
Exact mass: 696.15 
Ion type: [M-H]-
Precursor m/z: 695
m/z	relative intensity
651	100
609	12
