Mass spectrum: 7b,9a,10b,13a-Tetraacetoxy-5a(3'-methyl amino-3'-phenyl)-propionyloxy-taxa-4(20),11-diene; MS2; QqQ; [M+H]+; 25V
Name: 7b,9a,10b,13a-Tetraacetoxy-5a(3'-methyl amino-3'-phenyl)-propionyloxy-taxa-4(20),11-diene
Class: CLASS1 Other
Class: CLASS2 Other
Class: CLASS3 Other
Exact mass: no data
Ion type: [M+H]+
Precursor m/z: 682
m/z	relative intensity
131	12
180	100
263	15
281	10
367	30
415	12
459	13
517	11
580	15
622	32
