Mass spectrum: L-Homocitrulline; MS2; QqQ; [M+H]+; 16
Name: L-Homocitrulline
Class: CLASS1 Amino acid
Class: CLASS2 Homocitrulline
Formula: C7H15N3O3
Exact mass: 189.11 
Ion type: [M+H]+
Precursor m/z: 190
m/z	relative intensity
173	100
127	75
84	53
56	21
100	21
