Mass spectrum: 5a(3'-N,N-Dimethyl amino-3'-phenyl)-propionyloxy brevifoliol; MS2; QqQ; [M+H]+; 25V
Name: 5a(3'-N,N-Dimethyl amino-3'-phenyl)-propionyloxy brevifoliol
Class: CLASS1 Terpenoid
Class: CLASS2 Diterpenoid
Class: CLASS3 Brevifoliol
Exact mass: no data
Ion type: [M+H]+
Precursor m/z: 732
m/z	relative intensity
194	100
221	5
239	4
297	5
534	5
656	3
