Mass spectrum: Isosilybin A; MS2; QIT; [M-H]-; 50%
Name: Isosilybin A
Name: Silybin b2
Class: CLASS1 Flavonoid
Class: CLASS2 Flavonol
Class: CLASS3 Isosilybin
Formula: C25H22O10
Exact mass: 482.12 
Ion type: [M-H]-
Precursor m/z: 481
m/z	relative intensity
179	1
215	10
229	3
257	57
273	1
283	19
301	15
395	1
419	1
437	21
453	100
463	26
