Mass spectrum: Methyllycaconitine; MS2; QIT; [M+H]+; 10->30%
Name: Methyllycaconitine
Class: CLASS1 Alkaloid
Class: CLASS2 Diterpene
Class: CLASS3 Caconitine
Formula: C37H50N2O10
Exact mass: 682.35 
Ion type: [M+H]+
Precursor m/z: 683
m/z	relative intensity
683	3
665	13
651	100
619	45
605	15
601	14
587	10
573	11
569	4
386	10
