Mass spectrum: Medicarpin; MS2; QIT; [M+H]+; 4.0V
Name: Medicarpin
Class: CLASS1 Flavonoid
Class: CLASS2 Isoflavone
Class: CLASS3 Medicarpin
Formula: C16H14O4
Exact mass: 270.09 
Precursor m/z: 269
m/z	relative intensity
269	100
