Mass spectrum: N-acetyl-L-hydroxyproline; MS2; QqQ; [M-H]-; -15
Name: N-acetyl-L-hydroxyproline
Class: CLASS1 Amino acid
Class: CLASS2 Proline
Formula: C7H11N1O4
Exact mass: 173.07 
Ion type: [M-H]-
Precursor m/z: 172
m/z	relative intensity
130	100
100	32
72	38
