Mass spectrum: Apigenin; MS2; QqQ; [M-H]-; 30V
Name: Apigenin
Class: CLASS1 Flavonoid
Class: CLASS2 Flavone
Class: CLASS3 Apigenin glycoside
Formula: C15H10O5
Exact mass: 270.05 
Ion type: [M-H]-
Precursor m/z: 269
m/z	relative intensity
117	30
107	35
151	15
