Mass spectrum: L-Saccharopine; MS2; QqQ; [M+H]+; 36
Name: L-Saccharopine
Class: CLASS1 Amino acid
Class: CLASS2 Saccharopine
Formula: C11H20N2O6
Exact mass: 276.13 
Ion type: [M+H]+
Precursor m/z: 277
m/z	relative intensity
259	30
213	35
84	100
130	41
56	15
