Mass spectrum: 7b,9a,10b-Triacetoxy-13a-hydroxy-5a(3'-methyl amino-3'-phenyl)-propionyloxy-taxa-4(20),11-diene; MS2; QqQ; [M+H]+; 25V
Name: 7b,9a,10b-Triacetoxy-13a-hydroxy-5a(3'-methyl amino-3'-phenyl)-propionyloxy-taxa-4(20),11-diene
Class: CLASS1 Other
Class: CLASS2 Other
Class: CLASS3 Other
Exact mass: no data
Ion type: [M+H]+
Precursor m/z: 640
m/z	relative intensity
180	100
251	22
263	8
269	24
281	18
313	22
407	25
447	30
