Mass spectrum: Delphinidin 3-(6''-acetyl)-glucosided; MS2; QIT; [M+H]+; 20->10V
Name: Delphinidin 3-(6''-acetyl)-glucosided
Class: CLASS1 Flavonoid
Class: CLASS2 Anthocyanin
Class: CLASS3 Delphinidin glycoside
Formula: C23H23O13Cl1
Exact mass: 507.11 
Ion type: [M+H]+
Precursor m/z: 507
m/z	relative intensity
507	100
303	100
