Mass spectrum: (6aR, 11aR)-3-Hydroxy-8,9-dimethoxypterocarpan; MS2; QIT; [M+H]+; 15->33%
Name: (6aR, 11aR)-3-Hydroxy-8,9-dimethoxypterocarpan
Class: CLASS1 Flavonoid
Class: CLASS2 Pterocarpan
Class: CLASS3 Pterocarpan
Formula: C17H16O5
Exact mass: 300.10 
Ion type: [M+H]+
Precursor m/z: 301.1
m/z	relative intensity
283.1	8
269.2	12
241.1	4
207.1	1
191.1	100
179.1	4
167.1	87
163.1	7
153.1	13
