Mass spectrum: 3-O-Hexosyl-quercetin; MS2; QIT; [M-H]-; 0.3->2V
Name: 3-O-Hexosyl-quercetin
Class: CLASS1 Flavonoid
Class: CLASS2 Flavonol
Class: CLASS3 Quercetin glycoside
Formula: C21H20O12
Exact mass: 464.10 
Ion type: [M-H]-
Precursor m/z: 463
m/z	relative intensity
301	100
