Mass spectrum: (-)-N-[4'-Hydroxy-(E)-cinnamoyl]-3-hydroxy-L-tyrosine; MS2; QIT; [M+H]+; n.d.
Name: (-)-N-[4'-Hydroxy-(E)-cinnamoyl]-3-hydroxy-L-tyrosine
Name: N-p-coumaroyl-3-hydroxy-L-tyrosine
Class: CLASS1 Amino acid
Class: CLASS2 Tyrosine
Formula: C18H17N1O6
Exact mass: 343.11 
Ion type: [M+H]+
Precursor m/z: 344
m/z	relative intensity
1395	100
1068	85
725	46
1411	44
147	23
344	15
