Mass spectrum: Lucidenic acid N; MS2; QIT; [M-H]-; 30->50%
Name: Lucidenic acid N
Class: CLASS1 Terpenoid
Class: CLASS2 Triterpenoid
Class: CLASS3 Lucidenic acid 
Formula: C27H40O6
Exact mass: 460.28 
Ion type: [M-H]-
Precursor m/z: 459
m/z	relative intensity
459	100
441	100
423	30
397	41
385	52
331	17
303	10
289	56
288	11
263	34
249	28
195	16
