Mass spectrum: Ginsenoside Rg2; MS2; QIT; [M-H]-; 30V
Name: Ginsenoside Rg2
Class: CLASS1 Terpenoid
Class: CLASS2 Triterpenoid
Class: CLASS3 Ginsenoside
Formula: C42H72O13
Exact mass: 784.50 
Ion type: [M-H]-
Precursor m/z: 783
m/z	relative intensity
637	70
621	34
475	100
