Mass spectrum: 2-Propenyl glucosinolate; MS2; QIT; [M-H]-; 35
Name: 2-Propenyl glucosinolate
Name: Sinigrin
Class: CLASS1 Glucosinolate
Class: CLASS2 Aliphatic glucosinolate
Formula: C10H17N1O9S2
Exact mass: 359.03 
Ion type: [M-H]-
Precursor m/z: 358
m/z	relative intensity
278	100
275	100
259	100
227	100
195	100
180	100
162	100
