Mass spectrum: Malvidin 3-glucoside; MS2; TOF; [M]+; 400V
Name: Malvidin 3-glucoside
Name: oenin
Class: CLASS1 Flavonoid
Class: CLASS2 Anthocyanin
Class: CLASS3 Oenin
Formula: C23H25O12
Exact mass: 493.13 
Ion type: [M]+
Precursor m/z: 493
m/z	relative intensity
374	100
359	100
343	100
331	100
330	100
181	100
150	100
153	100
121	100
