Mass spectrum: L-Aspartyl-D-glucosamine; MS2; QqQ; [M-H]-; -24
Name: L-Aspartyl-D-glucosamine
Class: CLASS1 Other
Class: CLASS2 Sugar
Class: CLASS3 Other
Formula: C10H18N2O8
Exact mass: 335.00 
Ion type: [M-H]-
Precursor m/z: 334
m/z	relative intensity
113	100
196	85
214	50
96	36
179	33
111	22
99	19
42	11
