Mass spectrum: Methylprednisolone; MS2; QIT; [M+H]+; 50%
Name: Methylprednisolone
Class: CLASS1 Terpenoid
Class: CLASS2 Triterpenoid
Class: CLASS3 Prednisolone
Formula: C22H30O5
Exact mass: 374.21 
Ion type: [M+H]+
Precursor m/z: 375
m/z	relative intensity
339	100
135	8
161	15
185	8
211	8
237	10
253	23
279	26
293	49
297	12
303	40
321	95
