Mass spectrum: Herbacetin 7-O-rhamnose-8-O-glucose; MS2; QqQ; [M-H]-; 30V
Name: Herbacetin 7-O-rhamnose-8-O-glucose
Class: CLASS1 Terpenoid
Class: CLASS2 Triterpenoid
Class: CLASS3 Hederagenin glycoside
Formula: C27H30O16
Exact mass: 610.15 
Ion type: [M-H]-
Precursor m/z: 610
m/z	relative intensity
609	100
463	100
446	100
447	100
210	100
299	100
300	100
301	100
