Mass spectrum: Gossypetin di-O-glucoside; MS2; QqQ; [M-H]-; 30V
Name: Gossypetin di-O-glucoside
Class: CLASS1 Flavonoid
Class: CLASS2 Flavonol
Class: CLASS3 Gossypetin glycoside
Formula: C27H30O18
Exact mass: 642.14 
Ion type: [M-H]-
Precursor m/z: 641
m/z	relative intensity
641	100
478	100
479	100
331	100
332	100
333	100
