Mass spectrum: 2-O-p-Coumaroylglycerol; MS2; QIT; [M-H]-; n.d.
Name: 2-O-p-Coumaroylglycerol
Class: CLASS1 Phenylpropanoid
Class: CLASS2 Phenylpropanoid ester
Class: CLASS3 Glycerol
Formula: C12H14O5
Exact mass: 238.08 
Ion type: [M-H]-
Precursor m/z: 237
m/z	relative intensity
119	100
