Mass spectrum: 2'-Hydroxyformononetin beta-d-glucoside-malonate; MS2; QIT; [M+H]+; 4.0V
Name: 2'-Hydroxyformononetin beta-d-glucoside-malonate
Class: CLASS1 Flavonoid
Class: CLASS2 Isoflavone
Class: CLASS3 Formononetin glycoside
Formula: C25H24O13
Exact mass: 532.12 
Precursor m/z: 533
m/z	relative intensity
533	36
285	100
