Mass spectrum: Lampranthin II; MS2; QIT; [M+H]+; n.d.
Name: Lampranthin II
Class: CLASS1 Tannin
Class: CLASS2 Ellagitannin 
Class: CLASS3 Lambertianin
Formula: C34H34N2O16
Exact mass: 726.19 
Ion type: [M+H]+
Precursor m/z: 727
m/z	relative intensity
727	100
389	100
