Mass spectrum: g-Carboxyglutamic acid; MS2; QqQ; [M-H]-; -10
Name: g-Carboxyglutamic acid
Class: CLASS1 Amino acid
Class: CLASS2 Glutamic acid
Formula: C6H9N1O6
Exact mass: 191.04 
Ion type: [M-H]-
Precursor m/z: 190
m/z	relative intensity
146	100
102	68
128	34
