Mass spectrum: Hexosyl-hexosyl-soyasapogenol E; MS2; QIT; [M-H]-; n.d.
Name: Hexosyl-hexosyl-soyasapogenol E
Class: CLASS1 Terpenoid
Class: CLASS2 Triterpenoid
Class: CLASS3 Soyasapogenol glycoside
Formula: C42H68O13
Exact mass: 780.47 
Ion type: [M-H]-
Precursor m/z: 779.3
m/z	relative intensity
616.4	100
454.5	100
