Mass spectrum: Ginsenoside Ra1/Ra2/isomer; MS2; QIT; [M-H]-; 30V
Name: Ginsenoside Ra1/Ra2/isomer
Class: CLASS1 Terpenoid
Class: CLASS2 Triterpenoid
Class: CLASS3 Ginsenoside
Formula: C58H98O26
Exact mass: 1210.63 
Ion type: [M-H]-
Precursor m/z: 1209
m/z	relative intensity
1077	100
1047	18
945	4
915	7
783	4
621	1
459	1
