Mass spectrum: 3-Glucosyl-arabinosyl-28-glucosyl hederagenin; MS2; QIT; [M-H]-; n.d.
Name: 3-Glucosyl-arabinosyl-28-glucosyl hederagenin
Class: CLASS1 Terpenoid
Class: CLASS2 Triterpenoid
Class: CLASS3 Hederagenin glycoside
Formula: C47H76O18
Exact mass: 928.50 
Ion type: [M-H]-
Precursor m/z: 927.2
m/z	relative intensity
764.4	100
602.5	100
471.4	15
