Mass spectrum: Symplocososide Sc6; MS2; LIT; [M-H]-; 180V
Name: Symplocososide Sc6
Name: Symplocososide K
Class: CLASS1 Terpenoid
Class: CLASS2 Triterpenoid
Class: CLASS3 Symplocososide
Formula: C67H98O24
Exact mass: 1286.64 
Ion type: [M-H]-
Precursor m/z: 1285
m/z	relative intensity
1243	100
913	100
881	100
759	100
167	100
121	100
