Mass spectrum: Ginsenoside Rc; MS2; QIT; [M-H]-; 30V
Name: Ginsenoside Rc
Class: CLASS1 Terpenoid
Class: CLASS2 Triterpenoid
Class: CLASS3 Ginsenoside
Formula: C53H90O22
Exact mass: 1078.59 
Ion type: [M-H]-
Precursor m/z: 1077
m/z	relative intensity
945	100
915	20
783	45
621	6
459	2
