Mass spectrum: Glutathione (oxidised form); MS2; QqQ; [M+H]+; 30
Name: Glutathione (oxidised form)
Class: CLASS1 Amino acid
Class: CLASS2 Peptide
Class: CLASS3 Oligo peptide
Formula: C20H32N6O12S2
Exact mass: 612.15 
Ion type: [M+H]+
Precursor m/z: 613
m/z	relative intensity
355	100
231	78
177	56
185	31
85	22
235	22
130	22
76	17
