Mass spectrum: Herbacetin 3-O-glucose -7-O-xylose/arabinose; MS2; QqQ; [M-H]-; 30V
Name: Herbacetin 3-O-glucose -7-O-xylose/arabinose
Class: CLASS1 Terpenoid
Class: CLASS2 Triterpenoid
Class: CLASS3 Hederagenin glycoside
Formula: C26H28O16
Exact mass: 596.14 
Ion type: [M-H]-
Precursor m/z: 596
m/z	relative intensity
595	100
463	100
432	100
433	100
299	100
300	100
301	100
