Mass spectrum: Lambertianin C; MS2; QIT; [M-H]-; 45%
Name: Lambertianin C
Name: Rubusuaviin C
Class: CLASS1 Tannin
Class: CLASS2 Ellagitannin 
Class: CLASS3 Lambertianin
Formula: C123H80O78
Exact mass: 2804.23 
Ion type: [M-H]-
Precursor m/z: 1866.9
m/z	relative intensity
1866.9	100
1566.9	100
1250.2	100
1234.9	100
897.1	100
