Mass spectrum: 5-Coumaroyl quinic acid; MS2; QqQ; [M-H]-; 35V
Name: 5-Coumaroyl quinic acid
Class: CLASS1 Phenylpropanoid
Class: CLASS2 Phenylpropanoid ester
Class: CLASS3 Quinic acid
Formula: C16H18O8
Exact mass: 338.10 
Ion type: [M-H]-
Precursor m/z: 337
m/z	relative intensity
191	100
163	100
