Mass spectrum: L-Tyrosine; MS2; QqQ; [M+H]+; 12
Name: L-Tyrosine
Class: CLASS1 Amino acid
Class: CLASS2 Tyrosine
Formula: C9H11N1O3
Exact mass: 181.07 
Ion type: [M+H]+
Precursor m/z: 182
m/z	relative intensity
165	100
136	92
119	45
91	74
123	45
77	33
65	29
95	24
147	21
107	13
