Mass spectrum: L-Argininosuccinic anhydride; MS2; QqQ; [M+H]+; 55
Name: L-Argininosuccinic anhydride
Class: CLASS1 Amino acid
Class: CLASS2 Arginine
Class: CLASS3 Argininosuccinic acid
Formula: C10H16N4O5
Exact mass: 272.11 
Ion type: [M+H]+
Precursor m/z: 273
m/z	relative intensity
70	100
158	67
98	38
116	38
140	11
