Mass spectrum: Apigenin 7-O-rutinoside; MS2; QIT; [M+H]+; 35%
Name: Apigenin 7-O-rutinoside
Class: CLASS1 Flavonoid
Class: CLASS2 Flavone
Class: CLASS3 Apigenin glycoside
Formula: C27H30O14
Exact mass: 578.16 
Ion type: [M+H]+
Precursor m/z: 579
m/z	relative intensity
561	1
543	1
433	100
417	1
271	1
