Mass spectrum: Resveratrol dimer; MS2; QIT; [M+H]+; 100%
Name: Resveratrol dimer
Name: epsilon-Viniferin
Class: CLASS1 Stilbenoid
Class: CLASS2 Resveratrol
Formula: C28H22O6
Exact mass: 454.14 
Ion type: [M+H]+
Precursor m/z: 455
m/z	relative intensity
349	100
361	86
215	70
343	57
437	51
199	39
255	32
251	18
