Mass spectrum: Symplocososide G; MS2; LIT; [M+Na]+; n.d.
Name: Symplocososide G
Class: CLASS1 Terpenoid
Class: CLASS2 Triterpenoid
Class: CLASS3 Symplocososide
Formula: C64H100O24
Exact mass: 1252.66 
Ion type: [M+Na]+
Precursor m/z: 1275.5
m/z	relative intensity
1275.5	40
1143.5	5
763.5	40
745.4	5
553.1	10
535.1	100
475.1	8
281.1	5
