Mass spectrum: Xanthohumol/Isoxanthohumol; MS2; QIT; [M-H]-; 30V
Name: Xanthohumol/Isoxanthohumol
Class: CLASS1 Flavonoid
Class: CLASS2 Other
Class: CLASS3 Xanthohumol
Formula: C21H22O5
Exact mass: 354.15 
Ion type: [M-H]-
Precursor m/z: 353
m/z	relative intensity
233	100
119	13
247	6
251	5
189	4
218	3
145	2
165	2
