Mass spectrum: 13-Methylpalmatine; MS2; QIT; [M]; 23%
Name: 13-Methylpalmatine
Class: CLASS1 Alkaloid
Class: CLASS2 Isoquinoline
Class: CLASS3 Berberine
Formula: C22H24N1O4
Exact mass: 366.17 
Ion type: [M]
Precursor m/z: 366
m/z	relative intensity
366	5
351.1	100
322	13
