Mass spectrum: Luteolin 6-C-glucosylglucoside; MS2; in source CID; [M+H]+; 30V
Name: Luteolin 6-C-glucosylglucoside
Class: CLASS1 Flavonoid
Class: CLASS2 Flavone
Class: CLASS3 Luteolin glycoside
Formula: C27H30O16
Exact mass: 610.15 
Ion type: [M+H]+
Precursor m/z: 611
m/z	relative intensity
449	100
431	100
329	100
