Mass spectrum: Butein; MS2; QIT; [M-H]-; 30->34%
Name: Butein
Class: CLASS1 Flavonoid
Class: CLASS2 Chalcone
Class: CLASS3 Other
Formula: C15H12O5
Exact mass: 272.07 
Ion type: [M-H]-
Precursor m/z: 271
m/z	relative intensity
271	100
253	100
161	100
153	100
135	100
91	100
