Mass spectrum: Hispidol 4'-O-beta-d-glucoside-malonate; MS2; QIT; [M+H]+; 4.0V
Name: Hispidol 4'-O-beta-d-glucoside-malonate
Class: CLASS1 Phenylpropanoid
Class: CLASS2 Aurone
Formula: C24H22O12
Exact mass: 502.11 
Ion type: [M+H]+
Precursor m/z: 503.1272
m/z	relative intensity
503	16
255	100
