Mass spectrum: L-Cystine; MS2; QqQ; [M+H]+; 40
Name: L-Cystine
Class: CLASS1 Amino acid
Class: CLASS2 Cystine
Formula: C6H12N2O4S2
Exact mass: 240.02 
Ion type: [M+H]+
Precursor m/z: 241
m/z	relative intensity
74	100
152	91
120	62
122	31
195	14
154	11
