Mass spectrum: Afzelechin-(4alpha->8)-catechin; MS2; QqQ; [M+H]+; n.d.
Name: Afzelechin-(4alpha->8)-catechin
Class: CLASS1 Tannin
Class: CLASS2 Proanthocyanidin
Formula: C30H26O11
Exact mass: 562.15 
Ion type: [M+H]+
Precursor m/z: 563
m/z	relative intensity
427	100
411	68
291	32
273	45
