Mass spectrum: 7-O-(Acetyl)pentohexosyl-diosmetin; MS2; QIT; [M-H]-; 0.3->2V
Name: 7-O-(Acetyl)pentohexosyl-diosmetin
Class: CLASS1 Flavonoid
Class: CLASS2 Flavone
Class: CLASS3 Diosmetin
Exact mass: no data
Ion type: [M-H]-
Precursor m/z: 635.4
m/z	relative intensity
593	50
575.1	100
298.9	13
