Mass spectrum: Quercetin 3-(2-feruloyl-glucoside)-3'-(6-feruloyl-glucoside)-4'-glucoside; MS2; QIT; [M-H]-; 0.3->2V
Name: Quercetin 3-(2-feruloyl-glucoside)-3'-(6-feruloyl-glucoside)-4'-glucoside
Class: CLASS1 Flavonoid
Class: CLASS2 Flavonol
Class: CLASS3 Quercetin glycoside
Formula: C53H56O28
Exact mass: 1140.30 
Ion type: [M-H]-
Precursor m/z: 1139
m/z	relative intensity
977	100
