Mass spectrum: 5-Hydroxycaffeoyl-feruloylglycerol; MS2; QIT; [M-H]-; n.d.
Name: 5-Hydroxycaffeoyl-feruloylglycerol
Class: CLASS1 Phenylpropanoid
Class: CLASS2 Phenylpropanoid ester
Class: CLASS3 Glycerol
Formula: C23H24O10
Exact mass: 460.14 
Ion type: [M-H]-
Precursor m/z: 459
m/z	relative intensity
283	100
175	54
