Mass spectrum: Kaempferol-3-O-rhamnose; MS2; QqQ; [M-H]-; 30V
Name: Kaempferol-3-O-rhamnose
Class: CLASS1 Flavonoid
Class: CLASS2 Flavonol
Class: CLASS3 Kaempferol glycoside
Formula: C21H20O10
Exact mass: 432.11 
Ion type: [M-H]-
Precursor m/z: 431
m/z	relative intensity
284	100
285	100
255	100
227	100
