Mass spectrum: 12-Hydroxyganoderic acid; MS2; QIT; [M-H]-; 30->50%
Name: 12-Hydroxyganoderic acid
Class: CLASS1 Terpenoid
Class: CLASS2 Triterpenoid
Class: CLASS3 Ganoderic acid
Formula: C30H46O8
Exact mass: 534.32 
Ion type: [M-H]-
Precursor m/z: 533
m/z	relative intensity
533	100
515	100
486	20
