Mass spectrum: E-aminocaproic acid; MS2; QqQ; [M+H]+; 18
Name: E-aminocaproic acid
Class: CLASS1 Amino acid
Class: CLASS2 Caproic acid
Formula: C6H13N1O2
Exact mass: 131.09 
Ion type: [M+H]+
Precursor m/z: 132
m/z	relative intensity
115	13
114	100
69	77
79	26
97	25
41	25
55	18
96	17
73	10
