Mass spectrum: Ginsenoside Rg1; MS2; QIT; [M-H]-; 30V
Name: Ginsenoside Rg1
Class: CLASS1 Terpenoid
Class: CLASS2 Triterpenoid
Class: CLASS3 Ginsenoside
Formula: C42H72O14
Exact mass: 800.49 
Ion type: [M-H]-
Precursor m/z: 799
m/z	relative intensity
637	100
475	18
