Mass spectrum: Xanthohumol; MS2; QIT; [M+H]+; 29V
Name: Xanthohumol
Class: CLASS1 Flavonoid
Class: CLASS2 Other
Class: CLASS3 Xanthohumol
Formula: C21H22O5
Exact mass: 354.15 
Ion type: [M+H]+
Precursor m/z: 355
m/z	relative intensity
299	100
235	7
179	3
