Mass spectrum: Quercetin 3-triglucoside-7-rhamnoside-sinapoyl; MS2; QIT; [M-H]-; 0.3->2V
Name: Quercetin 3-triglucoside-7-rhamnoside-sinapoyl
Class: CLASS1 Flavonoid
Class: CLASS2 Flavonol
Class: CLASS3 Quercetin glycoside
Formula: C50H60O30
Exact mass: 1140.32 
Ion type: [M-H]-
Precursor m/z: 1139
m/z	relative intensity
993	100
933	14
787	18
