Mass spectrum: Afrormosin 7-O-beta-d-glucoside-6''-O-malonate; MS2; QIT; [M+H]+; 4.0V
Name: Afrormosin 7-O-beta-d-glucoside-6''-O-malonate
Class: CLASS1 Flavonoid
Class: CLASS2 Isoflavone
Class: CLASS3 Afrormosin glycoside
Formula: C26H26O13
Exact mass: 546.14 
Ion type: [M+H]+
Precursor m/z: 547.4825
m/z	relative intensity
585	60
547	100
299	80
