Mass spectrum: Kaempferol 3-O-rhamnose-7-O-glucose; MS2; QqQ; [M-H]-; 30V
Name: Kaempferol 3-O-rhamnose-7-O-glucose
Class: CLASS1 Flavonoid
Class: CLASS2 Flavonol
Class: CLASS3 Kaempferol glycoside
Formula: C27H30O15
Exact mass: 594.16 
Ion type: [M-H]-
Precursor m/z: 593
m/z	relative intensity
593	100
446	100
431	100
283	100
285	100
