Mass spectrum: Icariside II; MS2; QIT; [M-H]-; 20->35%
Name: Icariside II
Class: CLASS1 Flavonoid
Class: CLASS2 Flavonol
Class: CLASS3 Icariside
Formula: C27H30O10
Exact mass: 514.18 
Ion type: [M-H]-
Precursor m/z: 513
m/z	relative intensity
366	100
