Mass spectrum: Gomphrenin I; MS2; QIT; [M+H]+; n.d.
Name: Gomphrenin I
Class: CLASS1 Alkaloid
Class: CLASS2 Indole
Class: CLASS3 Gomphrenin
Formula: C24H26N2O13
Exact mass: 550.14 
Ion type: [M+H]+
Precursor m/z: 551
m/z	relative intensity
551	100
389	100
