Mass spectrum: 3-Demethoxy-9a-hydroxylpiperitol-O-diglucoside; MS2; QIT; [M-H]-; 35%
Name: 3-Demethoxy-9a-hydroxylpiperitol-O-diglucoside
Class: CLASS1 Other
Class: CLASS2 Other
Class: CLASS3 Other
Formula: C31H38O16
Exact mass: 666.22 
Ion type: [M-H]-
Precursor m/z: 665
m/z	relative intensity
605	15
575	3
545	2
503	100
