Mass spectrum: 2'-Hydroxy-2,4'-dimethoxychalcone; MS2; QIT; [M-H]-; 5->10%
Name: 2'-Hydroxy-2,4'-dimethoxychalcone
Class: CLASS1 Flavonoid
Class: CLASS2 Chalcone
Class: CLASS3 Chalcone
Formula: C17H16O4
Exact mass: 284.10 
Ion type: [M-H]-
Precursor m/z: 283
m/z	relative intensity
283	13
269	40
268	90
265	2
255	44
253	100
251	78
240	5
223	30
219	17
145	26
175	4
123	5
236	10
