Mass spectrum: Malvidin 3-galactoside; MS2; QIT; [M]+; n.d.
Name: Malvidin 3-galactoside
Class: CLASS1 Flavonoid
Class: CLASS2 Anthocyanin
Class: CLASS3 Malvidin glycoside
Formula: C23H25O12
Exact mass: 493.13 
Ion type: [M]+
Precursor m/z: 493
m/z	relative intensity
331	100
