Mass spectrum: Apigenin-6-C-arabinoside-8-C-glucoside; MS2; QIT; [M-H]-; 0.3->2V
Name: Apigenin-6-C-arabinoside-8-C-glucoside
Class: CLASS1 Flavonoid
Class: CLASS2 Flavone
Class: CLASS3 Apigenin glycoside
Formula: C26H28O14
Exact mass: 564.15 
Ion type: [M-H]-
Precursor m/z: 563
m/z	relative intensity
503	39
473	57
443	41
383	66
353	100
