Mass spectrum: Thebaine; MS2; QIT; [M+H]+; 16%
Name: Thebaine
Class: CLASS1 Alkaloid
Class: CLASS2 Benzylisoquinoline
Class: CLASS3 Thebaine
Formula: C19H21N1O3
Exact mass: 311.15 
Ion type: [M+H]+
Precursor m/z: 312
m/z	relative intensity
281	100
269	7
255	17
249	56
237	4
223	4
280	12
266	40
