Mass spectrum: Genistein 7-O-beta-d-glucoside-6''-O-malonate; MS2; QIT; [M+H]+; 4.0V
Name: Genistein 7-O-beta-d-glucoside-6''-O-malonate
Class: CLASS1 Flavonoid
Class: CLASS2 Isoflavone
Class: CLASS3 Genistein glycoside
Formula: C24H22O13
Exact mass: 518.11 
Ion type: [M+H]+
Precursor m/z: 519.4567
m/z	relative intensity
519	100
271	26
