Mass spectrum: L-Kynurenine; MS2; QqQ; [M+H]+; 14
Name: L-Kynurenine
Class: CLASS1 Amino acid
Class: CLASS2 Kynurenine
Formula: C10H12N2O3
Exact mass: 208.08 
Ion type: [M+H]+
Precursor m/z: 209
m/z	relative intensity
192	100
146	47
64	50
94	70
118	38
91	38
74	23
136	36
174	27
120	27
150	17
