Mass spectrum: 5-O-Cinnamoyl-taxicin I triacetate; MS2; QqQ; [M+H]+; 25V
Name: 5-O-Cinnamoyl-taxicin I triacetate
Class: CLASS1 Terpenoid
Class: CLASS2 Diterpenoid
Class: CLASS3 Taxicin
Exact mass: no data
Ion type: [M+H]+
Precursor m/z: 623
m/z	relative intensity
131	15
199	12
253	10
295	24
313	20
355	70
415	100
475	32
503	15
563	10
587	18
607	8
623	5
