Mass spectrum: Neopinone; MS2; QIT; [M+H]+; 16%
Name: Neopinone
Class: CLASS1 Alkaloid
Class: CLASS2 Tropane
Class: CLASS3 Neopinone
Formula: C18H19N1O3
Exact mass: 297.14 
Ion type: [M+H]+
Precursor m/z: 298
m/z	relative intensity
267	5
241	100
213	26
199	4
181	11
252	4
235	6
