Mass spectrum: Pelargonidin 3-glucoside-5-rhamnoside; MS2; QIT; [M+H]+; 20->10V
Name: Pelargonidin 3-glucoside-5-rhamnoside
Class: CLASS1 Flavonoid
Class: CLASS2 Anthocyanin
Class: CLASS3 Pelargonidin glycoside
Exact mass: no data
Ion type: [M+H]+
Precursor m/z: 579
m/z	relative intensity
579	100
433	100
271	100
