Mass spectrum: Ganoderenic acid D; MS2; QIT; [M-H]-; 30->50%
Name: Ganoderenic acid D
Class: CLASS1 Terpenoid
Class: CLASS2 Triterpenoid
Class: CLASS3 Ganoderenic acid
Formula: C30H40O7
Exact mass: 512.28 
Ion type: [M-H]-
Precursor m/z: 511
m/z	relative intensity
493	100
479	8
478	25
450	34
449	100
435	18
329	10
286	7
