Mass spectrum: D1-pyrroline-5-carboxylic acid; MS2; QqQ; [M+H]+; 20
Name: D1-pyrroline-5-carboxylic acid
Class: CLASS1 Other
Class: CLASS2 Other
Class: CLASS3 Other
Formula: C5H7N1O2
Exact mass: 113.05 
Ion type: [M+H]+
Precursor m/z: 114
m/z	relative intensity
96	8
68	100
41	11
