Mass spectrum: Isoorientin-7-O-glucoside-4'-O-[6-feruloyl]-glucoside; MS2; QIT; [M-H]-; 0.3->2V
Name: Isoorientin-7-O-glucoside-4'-O-[6-feruloyl]-glucoside
Class: CLASS1 Flavonoid
Class: CLASS2 Flavone
Class: CLASS3 Luteolin glycoside
Formula: C43H48O24
Exact mass: 948.25 
Ion type: [M-H]-
Precursor m/z: 947
m/z	relative intensity
785	100
609	56
