Mass spectrum: NG,NG,dimethylarginine; MS2; QqQ; [M+H]+; 42
Name: NG,NG,dimethylarginine
Class: CLASS1 Amino acid
Class: CLASS2 Arginine
Formula: C8H18N4O2
Exact mass: 202.14 
Ion type: [M+H]+
Precursor m/z: 203
m/z	relative intensity
70	100
88	66
116	58
71	43
158	35
46	24
