Mass spectrum: 1-Sinapoyl-2-feruloyl diglucoside; MS2; QIT; [M-H]-; 100%
Name: 1-Sinapoyl-2-feruloyl diglucoside
Class: CLASS1 Phenylpropanoid
Class: CLASS2 Phenylpropanoid glycoside
Class: CLASS3 Other
Formula: C33H40O18
Exact mass: 724.22 
Ion type: [M-H]-
Precursor m/z: 725
m/z	relative intensity
725	100
500	100
