Mass spectrum: Quercetin-3-O-rhamnose; MS2; QqQ; [M-H]-; 30V
Name: Quercetin-3-O-rhamnose
Class: CLASS1 Flavonoid
Class: CLASS2 Flavonol
Class: CLASS3 Quercetin glycoside
Formula: C21H20O11
Exact mass: 448.10 
Ion type: [M-H]-
Precursor m/z: 447
m/z	relative intensity
300	100
271	100
301	100
255	100
151	100
