Mass spectrum: Piceatannol; MS2; QIT; [M+H]+; 100%
Name: Piceatannol
Class: CLASS1 Stilbenoid
Class: CLASS2 Piceatannol 
Formula: C14H12O4
Exact mass: 244.07 
Ion type: [M+H]+
Precursor m/z: 245
m/z	relative intensity
135	100
236	44
227	25
199	24
219	21
214	18
124	15
209	12
203	9
185	8
