Mass spectrum: Taxuspine A; MS2; QqQ; [M+H]+; 25V
Name: Taxuspine A
Class: CLASS1 Terpenoid
Class: CLASS2 Diterpenoid
Class: CLASS3 Taxuspine
Formula: C42H48O11
Exact mass: 728.32 
Ion type: [M+H]+
Precursor m/z: 729
m/z	relative intensity
105	5
131	100
221	77
239	54
279	50
339	48
341	95
399	80
429	35
489	62
529	35
547	40
729	5
