Mass spectrum: Feruloyl-caffeoylglycerol; MS2; QIT; [M-H]-; n.d.
Name: Feruloyl-caffeoylglycerol
Class: CLASS1 Phenylpropanoid
Class: CLASS2 Phenylpropanoid ester
Class: CLASS3 Glycerol
Formula: C22H22O9
Exact mass: 430.13 
Ion type: [M-H]-
Precursor m/z: 429
m/z	relative intensity
429	100
235	4
193	4
161	2
