Mass spectrum: L-Methionine; MS2; QqQ; [M+H]+; 14
Name: L-Methionine
Class: CLASS1 Amino acid
Class: CLASS2 Methionine
Formula: C5H11N1O2S1
Exact mass: 149.05 
Ion type: [M+H]+
Precursor m/z: 150
m/z	relative intensity
133	64
104	100
87	11
61	72
56	69
102	23
74	10
