Mass spectrum: Silybin B; MS2; QIT; [M-H]-; 50%
Name: Silybin B
Name: Silybin a1
Class: CLASS1 Flavonoid
Class: CLASS2 Other
Class: CLASS3 Silybin
Formula: C25H22O10
Exact mass: 482.12 
Ion type: [M-H]-
Precursor m/z: 481
m/z	relative intensity
179	6
213	7
239	4
257	36
273	2
283	25
301	100
337	1
355	24
377	1
419	2
437	10
453	48
463	68
482	78
