Mass spectrum: Miltirone; MS2; QIT; [M+H]+; 45%
Name: Miltirone
Class: CLASS1 Other
Class: CLASS2 Other
Class: CLASS3 Miltrione
Formula: C19H22O2
Exact mass: 282.16 
Ion type: [M+H]+
Precursor m/z: 283
m/z	relative intensity
265	100
241	50
237	10
223	60
