Mass spectrum: Capsorubin-laurate-myristate; MS2; QIT; [M+H]+; 1.0V
Name: Capsorubin-laurate-myristate
Class: CLASS1 Terpenoid
Class: CLASS2 Carotenoid
Class: CLASS3 Capsorubin
Formula: C66H104O6
Exact mass: 992.78 
Ion type: [M+H]+
Precursor m/z: 993
m/z	relative intensity
793	100
765	53
565	15
