Mass spectrum: Ginsenoside Ro; MS2; QIT; [M-H]-; 30V
Name: Ginsenoside Ro
Class: CLASS1 Terpenoid
Class: CLASS2 Triterpenoid
Class: CLASS3 Ginsenoside
Formula: C48H76O19
Exact mass: 956.50 
Ion type: [M-H]-
Precursor m/z: 955
m/z	relative intensity
793	100
775	4
731	3
613	1
595	2
569	3
523	4
