Mass spectrum: 2'-Hydroxy-5'-methyl-4-methoxychalcone; MS2; QIT; [M-H]-; 5->10%
Name: 2'-Hydroxy-5'-methyl-4-methoxychalcone
Class: CLASS1 Flavonoid
Class: CLASS2 Chalcone
Class: CLASS3 Chalcone
Formula: C17H16O3
Exact mass: 268.11 
Ion type: [M-H]-
Precursor m/z: 267
m/z	relative intensity
267	8
252	100
251	7
239	4
237	3
224	4
