Mass spectrum: Kaempferol 3-sophoroside-7-glucoside; MS2; QIT; [M-H]-; 35
Name: Kaempferol 3-sophoroside-7-glucoside
Class: CLASS1 Flavonoid
Class: CLASS2 Flavonol
Class: CLASS3 Kaempferol glycoside
Formula: C33H40O21
Exact mass: 772.21 
Ion type: [M-H]-
Precursor m/z: 771
m/z	relative intensity
609	100
