Mass spectrum: Symplocososide Sc1; MS2; LIT; [M-H]-; 40V
Name: Symplocososide Sc1
Class: CLASS1 Flavonoid
Class: CLASS2 Flavonol
Class: CLASS3 Symplocoside
Formula: C66H106O23
Exact mass: 1266.71 
Ion type: [M-H]-
Precursor m/z: 1265
m/z	relative intensity
935	100
861	100
739	100
195	100
167	100
101	100
