Mass spectrum: Glycyl-L-proline; MS2; QqQ; [M-H]-; -18
Name: Glycyl-L-proline
Class: CLASS1 Amino acid
Class: CLASS2 Peptide
Class: CLASS3 Proline
Formula: C7H12N2O3
Exact mass: 172.08 
Ion type: [M-H]-
Precursor m/z: 171
m/z	relative intensity
114	100
127	21
98	16
