Mass spectrum: S-sulfo-L-cysteine; MS2; QqQ; [M-H]-; -26
Name: S-sulfo-L-cysteine
Class: CLASS1 Amino acid
Class: CLASS2 Cysteine
Formula: C3H7N1O5S2
Exact mass: 200.98 
Ion type: [M-H]-
Precursor m/z: 200
m/z	relative intensity
81	100
136	61
74	60
120	27
