Mass spectrum: Symplocoside like saponin 4a; MS2; LIT; [M+Na]+; 100V
Name: Symplocoside like saponin 4a
Class: CLASS1 Flavonoid
Class: CLASS2 Flavonol
Class: CLASS3 Symplocoside
Formula: C63H100O23
Exact mass: 1224.67 
Ion type: [M+Na]+
Precursor m/z: 1247
m/z	relative intensity
1187	100
1079	100
1019	100
567	100
435	100
405	100
345	100
245	100
