Mass spectrum: Postlupulone; MS2; QIT; [M+H]+; 30V
Name: Postlupulone
Class: CLASS1 Other
Class: CLASS2 Phenol
Class: CLASS3 Phloroglucinol
Exact mass: no data
Ion type: [M+H]+
Precursor m/z: 387
m/z	relative intensity
387	100
331	100
319	100
263	100
207	100
275	100
219	100
163	100
