Mass spectrum: Ganoderic acid A; MS2; QIT; [M-H]-; 30->50%
Name: Ganoderic acid A
Class: CLASS1 Terpenoid
Class: CLASS2 Triterpenoid
Class: CLASS3 Ganoderic acid
Formula: C30H44O7
Exact mass: 516.31 
Ion type: [M-H]-
Precursor m/z: 515
m/z	relative intensity
515	100
497	100
480	9
454	6
436	19
302	9
301	6
