Mass spectrum: 2,2'-Dihydroxy-3-methoxychalcone; MS2; QIT; [M-H]-; 5->10%
Name: 2,2'-Dihydroxy-3-methoxychalcone
Class: CLASS1 Flavonoid
Class: CLASS2 Chalcone
Class: CLASS3 Chalcone
Formula: C16H14O4
Exact mass: 270.09 
Ion type: [M-H]-
Precursor m/z: 269
m/z	relative intensity
269	5
254	15
225	7
210	8
175	9
149	100
123	19
93	33
