Mass spectrum: 2a,7b,13a-Triacetoxy-5a,10-dihydroxy-9-keto-2(3-20)-abeo-taxane; MS2; QqQ; [M+H]+; 25V
Name: 2a,7b,13a-Triacetoxy-5a,10-dihydroxy-9-keto-2(3-20)-abeo-taxane
Class: CLASS1 Terpenoid
Class: CLASS2 Diterpenoid
Class: CLASS3 Taxane
Exact mass: no data
Ion type: [M+H]+
Precursor m/z: 493
m/z	relative intensity
157	68
199	100
209	37
225	36
271	20
295	35
313	45
331	12
355	6
373	43
433	18
193	12
