Mass spectrum: Delphinidin 3-glucoside-5-acetylrhamnoside; MS2; QqQ; [M]+; 25V
Name: Delphinidin 3-glucoside-5-acetylrhamnoside
Class: CLASS1 Flavonoid
Class: CLASS2 Anthocyanin
Class: CLASS3 Delphinidin glycoside
Formula: C28H32NO15
Exact mass: 653.18 
Ion type: [M]+
Precursor m/z: 653
m/z	relative intensity
465	100
303	100
