Mass spectrum: Taxuspine D; MS2; QqQ; [M+H]+; 25V
Name: Taxuspine D
Class: CLASS1 Terpenoid
Class: CLASS2 Diterpenoid
Class: CLASS3 Taxuspine
Formula: C39H48O13
Exact mass: 724.31 
Ion type: [M+H]+
Precursor m/z: 725
m/z	relative intensity
131	32
226	35
357	100
415	85
517	50
665	50
707	25
