Mass spectrum: Hexosyl-pentosyl-soyasapogenol E; MS2; QIT; [M-H]-; n.d.
Name: Hexosyl-pentosyl-soyasapogenol E
Class: CLASS1 Terpenoid
Class: CLASS2 Triterpenoid
Class: CLASS3 Soyasapogenol glycoside
Formula: C41H66O12
Exact mass: 750.46 
Ion type: [M-H]-
Precursor m/z: 749.4
m/z	relative intensity
586.3	100
454.6	8
