Mass spectrum: Bavachin; MS2; QIT; [M+H]+; n.d.
Name: Bavachin
Class: CLASS1 Flavonoid
Class: CLASS2 Flavanone
Class: CLASS3 Bavachin
Formula: C20H20O4
Exact mass: 324.14 
Ion type: [M+H]+
Precursor m/z: 325
m/z	relative intensity
167	25
205	8
269	100
391	5
