Mass spectrum: p-Coumaric acid hexoside ; MS2; QIT; [M-H]-; n.d.
Name: p-Coumaric acid hexoside
Class: CLASS1 Phenylpropanoid
Class: CLASS2 Phenylpropanoid glycoside
Class: CLASS3 Coumaroyl glycoside
Formula: C9H8O3
Exact mass: 164.05 
Ion type: [M-H]-
Precursor m/z: 163
m/z	relative intensity
119	100
