Mass spectrum: Elfvingic acid A; MS2; QIT; [M-H]-; 30->50%
Name: Elfvingic acid A
Class: CLASS1 Other
Class: CLASS2 Other
Class: CLASS3 Other
Formula: C30H40O8
Exact mass: 528.27 
Ion type: [M-H]-
Precursor m/z: 527
m/z	relative intensity
509	100
479	8
465	100
435	6
