Mass spectrum: 1,2-Didehydromiltirone; MS2; QIT; [M+H]+; 45%
Name: 1,2-Didehydromiltirone
Class: CLASS1 Other
Class: CLASS2 Other
Class: CLASS3 Other
Formula: C19H20O2
Exact mass: 280.15 
Ion type: [M+H]+
Precursor m/z: 281
m/z	relative intensity
281	8
266	35
263	54
248	10
239	22
238	18
235	17
221	100
211	30
193	4
