Mass spectrum: Isoorientin-2''-O-glucoside; MS2; QIT; [M-H]-; 0.3->2V
Name: Isoorientin-2''-O-glucoside
Class: CLASS1 Flavonoid
Class: CLASS2 Flavone
Class: CLASS3 Luteolin glycoside
Formula: C27H30O16
Exact mass: 610.15 
Ion type: [M-H]-
Precursor m/z: 609
m/z	relative intensity
489	82
447	33
429	100
357	22
327	48
309	51
