Mass spectrum: Cyanidin 3-O-galactosyl-rhamnoside; MS2; QIT; [M+H]+; 30%
Name: Cyanidin 3-O-galactosyl-rhamnoside
Class: CLASS1 Flavonoid
Class: CLASS2 Anthocyanin
Class: CLASS3 Cyanidin glycoside
Formula: C27H31O15
Exact mass: 595.17 
Ion type: [M+H]+
Precursor m/z: 595
m/z	relative intensity
287	100
449	25
