Mass spectrum: Liquiritigenin; MS2; QIT; [M+H]+; 15->33%
Name: Liquiritigenin
Class: CLASS1 Flavonoid
Class: CLASS2 Flavanone
Class: CLASS3 Liquiritigenin
Formula: C15H12O4
Exact mass: 256.07 
Ion type: [M+H]+
Precursor m/z: 257.3
m/z	relative intensity
239	100
211.1	100
147	100
137.1	100
