Mass spectrum: Peonidin 3,5-diglucoside; MS2; QIT; [M]+; 50%
Name: Peonidin 3,5-diglucoside
Class: CLASS1 Flavonoid
Class: CLASS2 Anthocyanin
Class: CLASS3 Peonidin glycoside
Formula: C28H33O16
Exact mass: 625.18 
Ion type: [M]+
Precursor m/z: 625
m/z	relative intensity
463	100
301	100
