Mass spectrum: Ginsenoside Re; MS2; QqQ; [M+H]+; n.d.
Name: Ginsenoside Re
Class: CLASS1 Terpenoid
Class: CLASS2 Triterpenoid
Class: CLASS3 Ginsenoside
Formula: C48H82O18
Exact mass: 946.55 
Ion type: [M+H]+
Precursor m/z: 947
m/z	relative intensity
767	100
587	100
405	100
309	100
327	100
147	100
165	100
