Mass spectrum: Herbacetin; MS2; QqQ; [M+H]+; 30V
Name: Herbacetin
Class: CLASS1 Flavonoid
Class: CLASS2 Flavonol
Class: CLASS3 Herbacetin
Formula: C15H10O7
Exact mass: 302.04 
Ion type: [M+H]+
Precursor m/z: 303
m/z	relative intensity
121	100
133	100
169	100
181	100
