Mass spectrum: N-acetyltryptophan; MS2; QIT; [M+H]+; 35%
Name: N-acetyltryptophan
Class: CLASS1 Amino acid
Class: CLASS2 Tryptophan
Formula: C13H14N2O3
Exact mass: 246.10 
Ion type: [M+H]+
Precursor m/z: 247
m/z	relative intensity
229	100
201	14
205	33
188	3
159	2
130	4
