Mass spectrum: Swertiamarin; MS2; QqQ; [M+NH4]+; n.d.
Name: Swertiamarin
Class: CLASS1 Terpenoid
Class: CLASS2 Iridoid
Class: CLASS3 Other
Formula: C16H22O10
Exact mass: 374.12 
Ion type: [M+NH4]+
Precursor m/z: 392
m/z	relative intensity
195	100
