Mass spectrum: Zearalanone; MS2; QqQ; [M-H]-; 25V
Name: Zearalanone
Class: CLASS1 Other
Class: CLASS2 Phenol
Class: CLASS3 Zearalanol
Formula: C18H24O5
Exact mass: 320.16 
Ion type: [M-H]-
Precursor m/z: 319
m/z	relative intensity
275	100
205	100
