Mass spectrum: Catharanthine; MS2; QIT; [M+H]+; 0.9V
Name: Catharanthine
Class: CLASS1 Alkaloid
Class: CLASS2 Bisindole
Class: CLASS3 Catharanthine
Formula: C21H24N2O2
Exact mass: 336.18 
Ion type: [M+H]+
Precursor m/z: 337
m/z	relative intensity
337	31
173	17
144	100
