Mass spectrum: 4-Methylthiobutyl glucosinolate; MS2; QIT; [M-H]-; 35
Name: 4-Methylthiobutyl glucosinolate
Name: Glucoerucin
Class: CLASS1 Glucosinolate
Class: CLASS2 Aliphatic glucosinolate
Formula: C12H23N1O9S3
Exact mass: 421.05 
Ion type: [M-H]-
Precursor m/z: 420
m/z	relative intensity
340	100
291	100
275	100
259	100
242	100
227	100
195	100
178	100
163	100
