Mass spectrum: Herbacetin di-O-glucoside; MS2; QqQ; [M-H]-; 30V
Name: Herbacetin di-O-glucoside
Class: CLASS1 Terpenoid
Class: CLASS2 Triterpenoid
Class: CLASS3 Hederagenin glycoside
Formula: C27H30O17
Exact mass: 626.15 
Ion type: [M-H]-
Precursor m/z: 625
m/z	relative intensity
625	100
462	100
463	100
299	100
300	100
301	100
