Mass spectrum: L-Cystathionine; MS2; QqQ; [M+H]+; 20
Name: L-Cystathionine
Class: CLASS1 Amino acid
Class: CLASS2 Cystathionine
Formula: C7H14N2O4S1
Exact mass: 222.07 
Ion type: [M+H]+
Precursor m/z: 223
m/z	relative intensity
177	79
134	100
88	83
149	81
65	24
121	14
93	13
