Mass spectrum: Luteolin; MS2; QqQ; [M-H]-; -35
Name: Luteolin
Class: CLASS1 Flavonoid
Class: CLASS2 Flavone
Class: CLASS3 Luteolin
Formula: C15H10O6
Exact mass: 286.05 
Ion type: [M-H]-
Precursor m/z: 285
m/z	relative intensity
285	100
217	10
199	20
175	20
151	85
133	50
107	10
