Mass spectrum: Catechin gallate; MS2; QIT; [M-H]-; 100%
Name: Catechin gallate
Class: CLASS1 Flavonoid
Class: CLASS2 Flavanol
Class: CLASS3 Catechin
Formula: C22H18O10
Exact mass: 442.09 
Ion type: [M-H]-
Precursor m/z: 441
m/z	relative intensity
289	100
395	22
169	17
331	8
245	100
193	6
405	6
