Mass spectrum: Ginsenoside Rg1; MS2; Q-TOF; [M+H]+; 6->10V
Name: Ginsenoside Rg1
Name: Sanchinoside C1
Name: Sanchinoside Rg1
Class: CLASS1 Terpenoid
Class: CLASS2 Triterpenoid
Class: CLASS3 Ginsenoside
Formula: C42H72O14
Exact mass: 800.49 
Ion type: [M+H]+
Precursor m/z: 801.4904
m/z	relative intensity
639.8921	65
621.8903	100
477.7514	38
