Mass spectrum: Quercetin; MS2; QqQ; [M+H]+; 30V
Name: Quercetin
Class: CLASS1 Flavonoid
Class: CLASS2 Flavonol
Class: CLASS3 Quercetin glycoside
Formula: C15H10O7
Exact mass: 302.04 
Ion type: [M+H]+
Precursor m/z: 303
m/z	relative intensity
137	100
149	100
153	100
165	100
