Mass spectrum: Hydroferuloylglucose; MS2; QIT; [M+H]+; n.d.
Name: Hydroferuloylglucose
Class: CLASS1 Phenylpropanoid
Class: CLASS2 Phenylpropanoid glycoside
Class: CLASS3 Feruloyl glycoside
Formula: C16H20O10
Exact mass: 372.11 
Ion type: [M+H]+
Precursor m/z: 373
m/z	relative intensity
193	100
211	89
135	76
119	58
175	16
