Mass spectrum: Luteolin 7-O-(2-apiosyl)glucoside; MS2; QIT; [M-H]-; 25->30%
Name: Luteolin 7-O-(2-apiosyl)glucoside
Class: CLASS1 Flavonoid
Class: CLASS2 Flavone
Class: CLASS3 Luteolin glycoside
Formula: C26H28O15
Exact mass: 580.14 
Ion type: [M-H]-
Precursor m/z: 579
m/z	relative intensity
447	37
285	100
