Mass spectrum: Gallocatechin-(4alpha->6)-catechin; MS2; QqQ; [M+H]+; n.d.
Name: Gallocatechin-(4alpha->6)-catechin
Class: CLASS1 Tannin
Class: CLASS2 Proanthocyanidin
Formula: C30H26O13
Exact mass: 594.14 
Ion type: [M+H]+
Precursor m/z: 595
m/z	relative intensity
443	24
425	35
305	41
291	60
287	100
