Mass spectrum: 4-Methyl-3-methoxy-9a-hydroxyligballinol-O-glucoside; MS2; QIT; [M-H]-; 35%
Name: 4-Methyl-3-methoxy-9a-hydroxyligballinol-O-glucoside
Class: CLASS1 Phenylpropanoid
Class: CLASS2 Lignan
Class: CLASS3 Ligballinol
Formula: C26H32O11
Exact mass: 520.19 
Ion type: [M-H]-
Precursor m/z: 519
m/z	relative intensity
357	60
339	100
327	55
