Mass spectrum: Ganoderenic acid K; MS2; QIT; [M-H]-; 30->50%
Name: Ganoderenic acid K
Class: CLASS1 Terpenoid
Class: CLASS2 Triterpenoid
Class: CLASS3 Ganoderenic acid
Formula: C32H44O9
Exact mass: 572.30 
Ion type: [M-H]-
Precursor m/z: 571
m/z	relative intensity
553	100
538	37
511	13
494	8
467	100
450	8
