Mass spectrum: Kynurenine; MS2; QqQ; [M+H]+; 20V
Name: Kynurenine
Class: CLASS1 Amino acid
Class: CLASS2 Kynurenine
Formula: C10H12N2O3
Exact mass: 208.08 
Ion type: [M+H]+
Precursor m/z: 209
m/z	relative intensity
192	100
174	25
163	25
146	25
136	50
120	30
118	25
74	50
