Mass spectrum: Symplocoside like saponin 9; MS2; LIT; [M+Na]+; 100V
Name: Symplocoside like saponin 9
Class: CLASS1 Flavonoid
Class: CLASS2 Flavonol
Class: CLASS3 Symplocoside
Formula: C65H98O24
Exact mass: 1262.64 
Ion type: [M+Na]+
Precursor m/z: 1285
m/z	relative intensity
1183	100
1163	100
1061	100
609	100
549	100
477	100
447	100
417	100
387	100
