Mass spectrum: 5-Cinnamoyl brevifoliol; MS2; QqQ; [M+H]+; 25V
Name: 5-Cinnamoyl brevifoliol
Class: CLASS1 Terpenoid
Class: CLASS2 Diterpenoid
Class: CLASS3 Brevifoliol
Formula: C40H46O10
Exact mass: 686.31 
Ion type: [M+H]+
Precursor m/z: 687
m/z	relative intensity
105	20
131	25
221	60
239	100
279	50
299	40
339	17
445	18
447	9
489	33
549	17
565	2
609	12
669	16
