Mass spectrum: 2'-Hydroxy-3',4'-dimethoxychalcone; MS2; QIT; [M-H]-; 5->10%
Name: 2'-Hydroxy-3',4'-dimethoxychalcone
Class: CLASS1 Flavonoid
Class: CLASS2 Chalcone
Class: CLASS3 Chalcone
Formula: C17H16O4
Exact mass: 284.10 
Ion type: [M-H]-
Precursor m/z: 283
m/z	relative intensity
283	7
268	100
253	5
