Mass spectrum: 10-Deacetyl baccatin III; MS2; QqQ; [M+H]+; 25V
Name: 10-Deacetyl baccatin III
Class: CLASS1 Terpenoid
Class: CLASS2 Diterpenoid
Class: CLASS3 Baccatin
Formula: C29H36O10
Exact mass: 544.23 
Ion type: [M+H]+
Precursor m/z: 545
m/z	relative intensity
105	100
177	65
287	28
299	20
327	45
345	65
363	12
405	18
449	22
467	17
509	30
527	15
545	10
