Mass spectrum: 10-Debenzoyl-2a-acetoxy brevifoliol; MS2; QqQ; [M+H]+; 25V
Name: 10-Debenzoyl-2a-acetoxy brevifoliol
Class: CLASS1 Terpenoid
Class: CLASS2 Diterpenoid
Class: CLASS3 Brevifoliol
Formula: C26H38O10
Exact mass: 510.25 
Ion type: [M+H]+
Precursor m/z: 511
m/z	relative intensity
221	3
237	5
295	4
315	100
375	7
433	2
475	5
493	2
