Mass spectrum: Codeinone; MS2; QIT; [M+H]+; 16%
Name: Codeinone
Class: CLASS1 Alkaloid
Class: CLASS2 Benzylisoquinoline
Class: CLASS3 Codeine
Formula: C18H19N1O3
Exact mass: 297.14 
Ion type: [M+H]+
Precursor m/z: 298
m/z	relative intensity
267	16
241	100
223	20
213	8
199	3
181	5
252	4
239	15
237	7
207	6
