Mass spectrum: 3-Glucosyl-glucosyl-rhamnosyl-28-glucosyl-medicagenic acid; MS2; QIT; [M-H]-; n.d.
Name: 3-Glucosyl-glucosyl-rhamnosyl-28-glucosyl-medicagenic acid
Class: CLASS1 Terpenoid
Class: CLASS2 Triterpenoid
Class: CLASS3 Medicagenic acid
Formula: C54H86O25
Exact mass: 1134.55 
Ion type: [M-H]-
Precursor m/z: 1133.6
m/z	relative intensity
1133.8	45
970.9	100
