Mass spectrum: L-Argininosuccinic acid; MS2; QqQ; [M-H]-; -14
Name: L-Argininosuccinic acid
Class: CLASS1 Amino acid
Class: CLASS2 Arginine
Class: CLASS3 Argininosuccinic acid
Formula: C10H18N4O6
Exact mass: 290.12 
Ion type: [M-H]-
Precursor m/z: 289
m/z	relative intensity
271	100
131	60
132	43
88	21
115	21
173	18
