Mass spectrum: Medicarpin 3-O-beta-d-glucoside; MS2; QIT; [M+H]+; 4.0V
Name: Medicarpin 3-O-beta-d-glucoside
Name: Medicarpin 3-O-glucoside
Class: CLASS1 Flavonoid
Class: CLASS2 Isoflavone
Class: CLASS3 Medicarpin glycoside
Formula: C22H24O9
Exact mass: 432.14 
Ion type: [M+H]+
Precursor m/z: 433.4738
m/z	relative intensity
471	100
271	10
