Mass spectrum: Isorhamnetin-3-sophorotrioside-7-sophoroside; MS2; QIT; [M-H]-; 0.3->2V
Name: Isorhamnetin-3-sophorotrioside-7-sophoroside
Class: CLASS1 Flavonoid
Class: CLASS2 Flavonol
Class: CLASS3 Isorhamnetin glycoside
Formula: C46H62O32
Exact mass: 1126.32 
Ion type: [M-H]-
Precursor m/z: 1125
m/z	relative intensity
801	100
681	90
639	60
549	80
315	100
