Mass spectrum: Zearalenone; MS2; QqQ; [M-H]-; 25V
Name: Zearalenone
Class: CLASS1 Other
Class: CLASS2 Phenol
Class: CLASS3 Zearalanol
Formula: C18H22O5
Exact mass: 318.15 
Ion type: [M-H]-
Precursor m/z: 317
m/z	relative intensity
131	100
175	100
