Mass spectrum: Mangiferin; MS2; QqQ; [M+H]+; n.d.
Name: Mangiferin
Class: CLASS1 Other
Class: CLASS2 Other
Class: CLASS3 Mangiferin
Formula: C19H18O11
Exact mass: 422.08 
Ion type: [M+H]+
Precursor m/z: 423
m/z	relative intensity
357	100
