Mass spectrum: beta-Carotene; MS2; QIT; [M+H]+; 1.0V
Name: beta-Carotene
Class: CLASS1 Terpenoid
Class: CLASS2 Carotenoid
Class: CLASS3 Carotene
Formula: C40H56
Exact mass: 536.44 
Ion type: [M+H]+
Precursor m/z: 537
m/z	relative intensity
537	100
400	44
413	43
399	41
414	34
401	31
482	30
