Mass spectrum: Hesperetin 7-O-rutinoside; MS2; QIT; [M-H]-; 30->200%
Name: Hesperetin 7-O-rutinoside
Class: CLASS1 Flavonoid
Class: CLASS2 Flavanone
Class: CLASS3 Hesperetin glycoside
Formula: C28H34O15
Exact mass: 610.19 
Ion type: [M-H]-
Precursor m/z: 610
m/z	relative intensity
301	100
