Mass spectrum: Resveratrol trimer; MS2; QIT; [M+H]+; 100%
Name: Resveratrol trimer
Class: CLASS1 Stilbenoid
Class: CLASS2 Resveratrol
Formula: C42H32O9
Exact mass: 680.20 
Ion type: [M+H]+
Precursor m/z: 681
m/z	relative intensity
575	100
587	53
481	34
345	21
441	14
557	19
451	14
493	10
239	5
