Mass spectrum: Taxinine A; MS2; QqQ; [M+H]+; 25V
Name: Taxinine A
Class: CLASS1 Terpenoid
Class: CLASS2 Diterpenoid
Class: CLASS3 Taxinine
Formula: C26H36O8
Exact mass: 476.24 
Ion type: [M+H]+
Precursor m/z: 477
m/z	relative intensity
185	50
279	35
297	100
315	37
341	20
357	22
417	40
477	22
