Mass spectrum: L-Arginine; MS2; QqQ; [M+H]+; 32
Name: L-Arginine
Class: CLASS1 Amino acid
Class: CLASS2 Arginine
Formula: C6H14N4O2
Exact mass: 174.11 
Ion type: [M+H]+
Precursor m/z: 175
m/z	relative intensity
158	10
112	4
70	100
116	29
60	22
130	12
43	5
