Mass spectrum: p-Hydroxybenzoic acid-O-glucoside; MS2; QqQ; [M-H]-; 35
Name: p-Hydroxybenzoic acid-O-glucoside
Class: CLASS1 Other
Class: CLASS2 Benzoic acid
Class: CLASS3 Benzoyl glycoside
Formula: C13H16O8
Exact mass: 300.08 
Ion type: [M-H]-
Precursor m/z: 299
m/z	relative intensity
137	100
