Mass spectrum: Notoginsenoside R2/F3; MS2; QIT; [M-H]-; 30V
Name: Notoginsenoside R2/F3
Class: CLASS1 Terpenoid
Class: CLASS2 Triterpenoid
Class: CLASS3 Notoginsenoside
Formula: C41H70O13
Exact mass: 770.48 
Ion type: [M-H]-
Precursor m/z: 769
m/z	relative intensity
637	100
475	50
