Mass spectrum: Ginsenoside Re; MS2; Q-TOF; [M+H]+; 6->10V
Name: Ginsenoside Re
Name: Sanchinoside Re
Class: CLASS1 Terpenoid
Class: CLASS2 Triterpenoid
Class: CLASS3 Ginsenoside
Formula: C48H82O18
Exact mass: 946.55 
Ion type: [M+H]+
Precursor m/z: 947.5575
m/z	relative intensity
801.4967	100
785.5054	77
639.4451	35
603.4451	72
477.1841	30
