Mass spectrum: L-Aspartic acid; MS2; QqQ; [M-H]-; -16
Name: L-Aspartic acid
Class: CLASS1 Amino acid
Class: CLASS2 Aspartic acid
Formula: C4H7N1O4
Exact mass: 133.04 
Ion type: [M-H]-
Precursor m/z: 132
m/z	relative intensity
88	100
115	30
71	17
