Mass spectrum: Herbacetin-7-O-rha; MS2; QqQ; [M-H]-; -45
Name: Herbacetin-7-O-rha
Class: CLASS1 Terpenoid
Class: CLASS2 Triterpenoid
Class: CLASS3 Hederagenin glycoside
Formula: C21H20O11
Exact mass: 448.10 
Ion type: [M-H]-
Precursor m/z: 447
m/z	relative intensity
447	100
300	20
301	100
