Mass spectrum: Kaempferol 3-O-(p-coumaroyl)sophoroside-7-O-glucoside; MS2; QIT; [M-H]-; 0.3->2V
Name: Kaempferol 3-O-(p-coumaroyl)sophoroside-7-O-glucoside
Class: CLASS1 Flavonoid
Class: CLASS2 Flavonol
Class: CLASS3 Kaempferol glycoside
Formula: C42H46O23
Exact mass: 918.24 
Ion type: [M-H]-
Precursor m/z: 917
m/z	relative intensity
755	100
609	5
