Mass spectrum: Prelupulone/Adprelupulone; MS2; QIT; [M+H]+; 30V
Name: Prelupulone/Adprelupulone
Class: CLASS1 Other
Class: CLASS2 Phenol
Class: CLASS3 Phloroglucinol
Formula: C27H40O4
Exact mass: 428.29 
Ion type: [M+H]+
Precursor m/z: 429
m/z	relative intensity
429	100
373	100
361	100
305	100
249	100
275	100
219	100
163	100
