Mass spectrum: L-Methionine sulfoxide; MS2; QqQ; [M+H]+; 18
Name: L-Methionine sulfoxide
Class: CLASS1 Amino acid
Class: CLASS2 Methionine
Formula: C5H11N1O3S1
Exact mass: 165.05 
Ion type: [M+H]+
Precursor m/z: 166
m/z	relative intensity
149	16
74	100
56	48
102	17
