Mass spectrum: (6aR, 11aR)-3,8-Dihydroxy-9-methoxypterocarpan; MS2; QIT; [M+H]+; 15->33%
Name: (6aR, 11aR)-3,8-Dihydroxy-9-methoxypterocarpan
Class: CLASS1 Flavonoid
Class: CLASS2 Pterocarpan
Class: CLASS3 Pterocarpan
Formula: C16H14O5
Exact mass: 286.08 
Ion type: [M+H]+
Precursor m/z: 287.4
m/z	relative intensity
272.3	27
269.2	36
259.1	16
255.2	40
193.1	1
177.2	100
161.1	44
153.1	59
147.1	17
123.1	51
