Mass spectrum: L-a-Aminoadipic acid; MS2; QqQ; [M-H]-; -20
Name: L-a-Aminoadipic acid
Class: CLASS1 Amino acid
Class: CLASS2 Aminoadipic acid
Formula: C6H11N1O4
Exact mass: 161.07 
Ion type: [M-H]-
Precursor m/z: 160
m/z	relative intensity
116	100
142	51
98	44
