Mass spectrum: 2-Deacetyldecinnamoyl taxinine E; MS2; QqQ; [M+H]+; 25V
Name: 2-Deacetyldecinnamoyl taxinine E
Class: CLASS1 Terpenoid
Class: CLASS2 Diterpenoid
Class: CLASS3 Taxinine
Formula: C26H38O8
Exact mass: 478.26 
Ion type: [M+H]+
Precursor m/z: 479
m/z	relative intensity
185	100
263	12
281	50
299	55
341	22
359	18
419	8
461	2
479	28
