Mass spectrum: Diphenoxylate(to be removed); MS2; QIT; [M+H]+; 50%
Name: Diphenoxylate(to be removed)
Class: CLASS1 Other
Class: CLASS2 Carboxylic acid
Class: CLASS3 Piperidinecarboxylic acid
Formula: C30H32N2O2
Exact mass: 452.25 
Ion type: [M+H]+
Precursor m/z: 453
m/z	relative intensity
379	100
172	4
187	12
204	3
218	2
233	8
249	7
260	8
351	5
407	30
425	78
453	12
