Mass spectrum: Delphinidin; MS2; TOF; [M]+; 400V
Name: Delphinidin
Class: CLASS1 Flavonoid
Class: CLASS2 Anthocyanin
Class: CLASS3 Delphinidin
Formula: C15H11O7
Exact mass: 303.05 
Ion type: [M]+
Precursor m/z: 303
m/z	relative intensity
286	100
258	100
257	100
229	100
201	100
187	100
153	100
150	100
125	100
121	100
274	100
245	100
203	100
