Mass spectrum: L-Saccharopine; MS2; QqQ; [M-H]-; -16
Name: L-Saccharopine
Class: CLASS1 Amino acid
Class: CLASS2 Saccharopine
Formula: C11H20N2O6
Exact mass: 276.13 
Ion type: [M-H]-
Precursor m/z: 275
m/z	relative intensity
257	100
128	12
145	28
