Mass spectrum: Gly-oxindolylalanine-Gly-OMe; MS2; QIT; [M+H]+; 35%
Name: Gly-oxindolylalanine-Gly-OMe
Class: CLASS1 Amino acid
Class: CLASS2 Peptide
Class: CLASS3 Oligo peptide
Formula: C16H20N4O5
Exact mass: 348.14 
Ion type: [M+H]+
Precursor m/z: 349
m/z	relative intensity
331	76
314	2
260	100
243	1
