Mass spectrum: 3-Acetylaconitine; MS2; QIT; [M+H]+; 25->42%
Name: 3-Acetylaconitine
Class: CLASS1 Alkaloid
Class: CLASS2 Diterpene
Class: CLASS3 Aconitine
Formula: C36H49N1O12
Exact mass: 687.33 
Ion type: [M+H]+
Precursor m/z: 688
m/z	relative intensity
536	5
568	10
596	10
628	100
688	60
