Mass spectrum: Gallocatechin-(4alpha->8)-gallocatechin-(4alpha->8)-catechin; MS2; QqQ; [M+H]+; n.d.
Name: Gallocatechin-(4alpha->8)-gallocatechin-(4alpha->8)-catechin
Class: CLASS1 Tannin
Class: CLASS2 Proanthocyanidin
Formula: C45H38O20
Exact mass: 898.21 
Ion type: [M+H]+
Precursor m/z: 899
m/z	relative intensity
747	22
731	46
609	24
595	100
