Mass spectrum: 7-O-Acetyl taxine A; MS2; QqQ; [M+H]+; 25V
Name: 7-O-Acetyl taxine A
Class: CLASS1 Terpenoid
Class: CLASS2 Diterpenoid
Class: CLASS3 Taxine
Formula: C37H49N1O11
Exact mass: 683.33 
Ion type: [M+H]+
Precursor m/z: 684
m/z	relative intensity
131	15
134	22
164	100
221	37
239	14
261	22
279	25
357	32
367	28
399	19
547	30
624	35
