Mass spectrum: Cantaxanthin; MS2; QIT; [M-H]-; 35
Name: Cantaxanthin
Name: beta,beta-Carotene-4,4'-dione
Class: CLASS1 Terpenoid
Class: CLASS2 Carotenoid
Class: CLASS3 Canthaxanthin
Formula: C40H52O2
Exact mass: 564.40 
Ion type: [M-H]-
Precursor m/z: 447
m/z	relative intensity
327	28
284	100
