Mass spectrum: Formimino-L-glutamic acid; MS2; QqQ; [M+H]+; 32
Name: Formimino-L-glutamic acid
Class: CLASS1 Amino acid
Class: CLASS2 Glutamic acid
Formula: C6H10N2O4
Exact mass: 174.06 
Ion type: [M+H]+
Precursor m/z: 175
m/z	relative intensity
157	64
129	39
111	44
84	100
56	50
130	40
83	26
68	17
