Mass spectrum: 5-Hydroxyindole-3-acetic acid; MS2; QqQ; [M+H]+; 10->40V
Name: 5-Hydroxyindole-3-acetic acid
Class: CLASS1 Alkaloid
Class: CLASS2 Indole
Class: CLASS3 Indole
Formula: C10H9N1O3
Exact mass: 191.06 
Ion type: [M+H]+
Precursor m/z: 192
m/z	relative intensity
192	100
146	100
