Mass spectrum: Luteolin-6-C-arabinoside-8-C-glucoside; MS2; QIT; [M-H]-; 0.3->2V
Name: Luteolin-6-C-arabinoside-8-C-glucoside
Class: CLASS1 Flavonoid
Class: CLASS2 Flavone
Class: CLASS3 Luteolin glycoside
Formula: C26H28O15
Exact mass: 580.14 
Ion type: [M-H]-
Precursor m/z: 579
m/z	relative intensity
489	100
399	43
369	41
459	14
519	3
