Mass spectrum: Resveratrol dimer; MS2; QIT; [M+H]+; 100%
Name: Resveratrol dimer
Class: CLASS1 Stilbenoid
Class: CLASS2 Resveratrol
Exact mass: no data
Ion type: [M+H]+
Precursor m/z: 471
m/z	relative intensity
377	100
386	82
255	82
361	57
215	40
231	33
453	22
359	22
343	21
185	7
