Mass spectrum: Salutaridinol; MS2; QIT; [M+H]+; 16%
Name: Salutaridinol
Class: CLASS1 Alkaloid
Class: CLASS2 Benzylisoquinoline
Class: CLASS3 Salutaridinol
Formula: C19H23N1O4
Exact mass: 329.16 
Ion type: [M+H]+
Precursor m/z: 330
m/z	relative intensity
299	11
287	13
273	27
267	20
255	50
241	100
239	54
238	8
223	40
213	56
209	28
192	32
181	13
298	15
280	7
