Mass spectrum: Cyanidin 3-caffeoyl-p-coumarylsophoroside-5-glucoside; MS2; QqQ; [M]+; 50%
Name: Cyanidin 3-caffeoyl-p-coumarylsophoroside-5-glucoside
Class: CLASS1 Flavonoid
Class: CLASS2 Anthocyanin
Class: CLASS3 Cyanidin glycoside
Formula: C51H53O26
Exact mass: 1081.28 
Ion type: [M]+
Precursor m/z: 1081
m/z	relative intensity
919	100
449	100
287	100
