Mass spectrum: Quercetin 3-glucuronide; MS2; QqQ; [M-H]-; 35
Name: Quercetin 3-glucuronide
Class: CLASS1 Flavonoid
Class: CLASS2 Flavonol
Class: CLASS3 Quercetin glycoside
Formula: C21H18O13
Exact mass: 478.07 
Ion type: [M-H]-
Precursor m/z: 477
m/z	relative intensity
301	100
151	100
135	100
