Mass spectrum: Salvianolic acid B; MS2; QIT; [M-H]-; n.d.
Name: Salvianolic acid B
Class: CLASS1 Phenylpropanoid
Class: CLASS2 Lignan
Class: CLASS3 Salvianolic acid
Formula: C36H30O16
Exact mass: 718.15 
Ion type: [M-H]-
Precursor m/z: 717
m/z	relative intensity
519	100
321	100
