Mass spectrum: 3-Glucosyl-malonyl-medicagenic acid; MS2; QIT; [M-H]-; n.d.
Name: 3-Glucosyl-malonyl-medicagenic acid
Class: CLASS1 Terpenoid
Class: CLASS2 Triterpenoid
Class: CLASS3 Medicagenic acid
Formula: C39H58O14
Exact mass: 750.38 
Ion type: [M-H]-
Precursor m/z: 749.2
m/z	relative intensity
704.7	100
438.8	50
