Mass spectrum: L-DOPA; MS2; QqQ; [M-H]-; -20
Name: L-DOPA
Name: L-3-(3,4-dihydroxyphenyl)-alanine
Class: CLASS1 Amino acid
Class: CLASS2 Alanine
Formula: C9H11N1O4
Exact mass: 197.07 
Ion type: [M-H]-
Precursor m/z: 196
m/z	relative intensity
135	100
122	40
109	21
179	30
72	30
74	30
