Mass spectrum: S-adenosyl-L-homocysteine; MS2; QqQ; [M-H]-; -40
Name: S-adenosyl-L-homocysteine
Class: CLASS1 Amino acid
Class: CLASS2 Homocysteine
Formula: C14H20N6O5S1
Exact mass: 384.12 
Ion type: [M-H]-
Precursor m/z: 383
m/z	relative intensity
134	100
107	17
