Mass spectrum: Koparin; MS2; QIT; [M-H]-; 30->34%
Name: Koparin
Class: CLASS1 Flavonoid
Class: CLASS2 Isoflavone
Class: CLASS3 Koparin
Formula: C16H12O6
Exact mass: 300.06 
Ion type: [M-H]-
Precursor m/z: 299
m/z	relative intensity
299	100
284	100
240	100
