Mass spectrum: beta-Cryptoxanthin; MS2; QIT; [M+H]+; 1.0V
Name: beta-Cryptoxanthin
Class: CLASS1 Terpenoid
Class: CLASS2 Carotenoid
Class: CLASS3 Cryptoxanthin
Formula: C40H56O1
Exact mass: 552.43 
Ion type: [M+H]+
Precursor m/z: 553
m/z	relative intensity
535	100
553	57
460	56
497	19
399	16
429	13
415	12
