Mass spectrum: Ananaflavoside C; MS2; QIT; [M+H]+; n.d.
Name: Ananaflavoside C
Class: CLASS1 Flavonoid
Class: CLASS2 Flavone
Class: CLASS3 Ananaflavoside
Formula: C24H26O13
Exact mass: 522.14 
Ion type: [M+H]+
Precursor m/z: 523
m/z	relative intensity
361	100
