Mass spectrum: 2''-O-Rhamnosyl-6''-O-hexosyl-6-C-hexosyl-methylluteolin; MS2; QIT; [M-H]-; 0.3->2V
Name: 2''-O-Rhamnosyl-6''-O-hexosyl-6-C-hexosyl-methylluteolin
Class: CLASS1 Flavonoid
Class: CLASS2 Flavone
Class: CLASS3 Isoscoparin glycoside
Formula: C34H42O20
Exact mass: 770.23 
Ion type: [M-H]-
Precursor m/z: 769
m/z	relative intensity
605	100
487	20
371	6
353	15
341	6
323	63
