Mass spectrum: Pelargonidin 3-(p-Hydroxybenzoyl)(feruloyl)diglucoside-5-(malonyl)glucoside; MS2; QIT; [M]+; 50%
Name: Pelargonidin 3-(p-Hydroxybenzoyl)(feruloyl)diglucoside-5-(malonyl)glucoside
Class: CLASS1 Flavonoid
Class: CLASS2 Anthocyanin
Class: CLASS3 Pelargonidin glycoside
Formula: C53H55O28
Exact mass: 1139.29 
Ion type: [M]+
Precursor m/z: 1139
m/z	relative intensity
891	100
519	100
