Mass spectrum: Ginsenoside Rg1; MS2; QIT; [M-H]-; n.d.
Name: Ginsenoside Rg1
Name: Sanchinoside C1
Name: Sanchinoside Rg1
Class: CLASS1 Terpenoid
Class: CLASS2 Triterpenoid
Class: CLASS3 Ginsenoside
Formula: C42H72O14
Exact mass: 800.49 
Ion type: [M-H]-
Precursor m/z: 800
m/z	relative intensity
638	100
