Mass spectrum: Prunin; MS2; QqQ; [M-H]-; -20
Name: Prunin
Class: CLASS1 Flavonoid
Class: CLASS2 Chalcone
Class: CLASS3 Naringenin glycoside
Formula: C21H22O10
Exact mass: 434.12 
Ion type: [M-H]-
Precursor m/z: 433
m/z	relative intensity
433	70
271	100
