Mass spectrum: Notoginsenoside Fa; MS2; Q-TOF; [M+H]+; 6->10V
Name: Notoginsenoside Fa
Class: CLASS1 Terpenoid
Class: CLASS2 Triterpenoid
Class: CLASS3 Notoginsenoside
Formula: C59H100O27
Exact mass: 1240.65 
Ion type: [M+H]+
Precursor m/z: 1241.6538
m/z	relative intensity
1109.6135	100
1079.6025	37
947.5553	15
785.5049	63
460.6224	23
