Mass spectrum: Apigenin 6-C-glucoside 8-C-xyloside; MS2; in source CID; [M+H]+; 30V
Name: Apigenin 6-C-glucoside 8-C-xyloside
Class: CLASS1 Flavonoid
Class: CLASS2 Flavone
Class: CLASS3 Apigenin glycoside
Formula: C26H28O14
Exact mass: 564.15 
Ion type: [M+H]+
Precursor m/z: 565.2
m/z	relative intensity
547	100
529	100
511	100
481	100
469	100
457	100
445	100
427	100
409	100
