Mass spectrum: Decinnamoyl taxinine J; MS2; QqQ; [M+H]+; 25V
Name: Decinnamoyl taxinine J
Class: CLASS1 Terpenoid
Class: CLASS2 Diterpenoid
Class: CLASS3 Taxinine
Formula: C28H40O9
Exact mass: 520.27 
Ion type: [M+H]+
Precursor m/z: 521
m/z	relative intensity
237	15
261	33
279	100
297	50
321	12
339	31
357	32
399	12
417	32
459	5
501	25
519	55
