Mass spectrum: Bilobalide; MS2; QqQ; [M-H]-; 30->42V
Name: Bilobalide
Class: CLASS1 Terpenoid
Class: CLASS2 Sesquiterpenoid
Class: CLASS3 Bilobalide
Formula: C15H18O8
Exact mass: 326.10 
Ion type: [M-H]-
Precursor m/z: 325
m/z	relative intensity
325	25
281	1
251	30
237	25
207	10
193	25
163	100
