Mass spectrum: L-Homocysteic acid; MS2; QqQ; [M+H]+; 16
Name: L-Homocysteic acid
Class: CLASS1 Amino acid
Class: CLASS2 Homocysteic acid
Formula: C4H9N1O5S1
Exact mass: 183.02 
Ion type: [M+H]+
Precursor m/z: 184
m/z	relative intensity
138	100
56	100
143	69
65	30
