Mass spectrum: Kaempferol 3-triglucoside; MS2; QIT; [M-H]-; 100%
Name: Kaempferol 3-triglucoside
Class: CLASS1 Flavonoid
Class: CLASS2 Flavonol
Class: CLASS3 Kaempferol glycoside
Formula: C33H40O21
Exact mass: 772.21 
Ion type: [M-H]-
Precursor m/z: 771
m/z	relative intensity
771	100
609	100
447	100
285	100
