Mass spectrum: S-sulfo-L-cysteine; MS2; QqQ; [M+H]+; 18
Name: S-sulfo-L-cysteine
Class: CLASS1 Amino acid
Class: CLASS2 Cysteine
Formula: C3H7N1O5S2
Exact mass: 200.98 
Ion type: [M+H]+
Precursor m/z: 202
m/z	relative intensity
120	100
74	63
143	31
161	23
65	10
