Mass spectrum: 8-OH-Chrysoeriol 7-O-allosylglucoside; MS2; QIT; [M-H]-; 0.3->2V
Name: 8-OH-Chrysoeriol 7-O-allosylglucoside
Class: CLASS1 Flavonoid
Class: CLASS2 Flavone
Class: CLASS3 Chrysoeriol 
Formula: C28H32O17
Exact mass: 640.16 
Ion type: [M-H]-
Precursor m/z: 639
m/z	relative intensity
477	22
459	7
315	100
