Mass spectrum: Peonidin 3-rutinoside; MS2; QIT; [M+H]+; 20->10V
Name: Peonidin 3-rutinoside
Class: CLASS1 Flavonoid
Class: CLASS2 Anthocyanin
Class: CLASS3 Malvidin glycoside
Formula: C29H35O16Cl1
Exact mass: 639.19 
Ion type: [M+H]+
Precursor m/z: 639
m/z	relative intensity
639	100
493	100
331	100
