Mass spectrum: Psoralidin; MS2; QIT; [M+H]+; n.d.
Name: Psoralidin
Class: CLASS1 Phenylpropanoid
Class: CLASS2 Coumarin
Class: CLASS3 Psoralidin
Formula: C20H16O5
Exact mass: 336.10 
Ion type: [M+H]+
Precursor m/z: 337
m/z	relative intensity
359	100
415	10
749	10
