Mass spectrum: Leucin-betaxanthin; MS2; QIT; [M+H]+; n.d.
Name: Leucin-betaxanthin
Name: Vulgaxanthin IV
Class: CLASS1 Other
Class: CLASS2 Other
Class: CLASS3 Xanthin
Formula: C15H20N2O6
Exact mass: 324.13 
Ion type: [M+H]+
Precursor m/z: 325
m/z	relative intensity
325	100
281	100
