Mass spectrum: L-Glutamine; MS2; QqQ; [M-H]-; -12
Name: L-Glutamine
Class: CLASS1 Amino acid
Class: CLASS2 Glutamine
Formula: C5H10N2O3
Exact mass: 146.07 
Ion type: [M-H]-
Precursor m/z: 145
m/z	relative intensity
127	100
109	33
42	25
84	17
74	15
