Mass spectrum: 4-[2-Hydroxy-2-(4-hydroxy-3-methoxyphenyl)-1-hydroxymethylethoxy]-3,5-dimethoxybenzoylcholine(Syringoylcholine(4-O-beta)G,; MS2; QIT; [M+Na]+; 15->55V
Name: 4-[2-Hydroxy-2-(4-hydroxy-3-methoxyphenyl)-1-hydroxymethylethoxy]-3,5-dimethoxybenzoylcholine(Syringoylcholine(4-O-beta)G,
Class: CLASS1 Phenylpropanoid
Class: CLASS2 Phenylpropanoid ester
Class: CLASS3 Choline
Formula: C24H34N1O9
Exact mass: 480.22 
Precursor m/z: 480.224
m/z	relative intensity
480.224	44
421.147	24
225.071	100
