Mass spectrum: 7,4'-Dihydroxyflavone; MS2; QIT; [M+H]+; 4.0V
Name: 7,4'-Dihydroxyflavone
Class: CLASS1 Flavonoid
Class: CLASS2 Flavone
Class: CLASS3 Flavone
Formula: C15H10O4
Exact mass: 254.06 
Ion type: [M+H]+
Precursor m/z: 253
m/z	relative intensity
253	100
