Mass spectrum: (6aS, 11aS)-Medicarpin; MS2; QIT; [M+H]+; 15->33%
Name: (6aS, 11aS)-Medicarpin
Class: CLASS1 Flavonoid
Class: CLASS2 Isoflavone
Class: CLASS3 Medicarpin
Formula: C16H14O4
Exact mass: 270.09 
Ion type: [M+H]+
Precursor m/z: 271.2
m/z	relative intensity
253.2	2
243.2	15
239.3	3
177.1	3
163.1	21
161.1	79
147.2	27
137.2	100
123.1	21
