Mass spectrum: Kaempferol 3-O-sophoroside; MS2; QIT; [M-H]-; 0.3->2V
Name: Kaempferol 3-O-sophoroside
Class: CLASS1 Flavonoid
Class: CLASS2 Flavonol
Class: CLASS3 Kaempferol glycoside
Formula: C27H30O16
Exact mass: 610.15 
Ion type: [M-H]-
Precursor m/z: 609
m/z	relative intensity
448	3
429	28
285	100
