Mass spectrum: Isoliquiritigenin; MS2; QIT; [M+H]+; 4.0V
Name: Isoliquiritigenin
Class: CLASS1 Flavonoid
Class: CLASS2 Flavanone
Class: CLASS3 Isoliquiritigenin
Formula: C15H12O4
Exact mass: 256.07 
Precursor m/z: 255
m/z	relative intensity
255	100
