Mass spectrum: Homovanillic acid; MS2; QqQ; [M-H]-; 10->40V
Name: Homovanillic acid
Class: CLASS1 Other
Class: CLASS2 Carboxylic acid
Class: CLASS3 Homovanillic acid
Formula: C9H10O4
Exact mass: 182.06 
Ion type: [M-H]-
Precursor m/z: 181
m/z	relative intensity
181	100
137	100
