Mass spectrum: Naringenin-7-O-neohesperidoside; MS2; QqQ; [M-H]-; -35
Name: Naringenin-7-O-neohesperidoside
Class: CLASS1 Flavonoid
Class: CLASS2 Chalcone
Class: CLASS3 Naringenin glycoside
Formula: C27H32O14
Exact mass: 580.18 
Ion type: [M-H]-
Precursor m/z: 579
m/z	relative intensity
579	100
459	20
271	40
