Mass spectrum: Gossypetin-3-O-glu-7-O-xylo/ara; MS2; QqQ; [M-H]-; -45
Name: Gossypetin-3-O-glu-7-O-xylo/ara
Class: CLASS1 Flavonoid
Class: CLASS2 Flavonol
Class: CLASS3 Gossypetin glycoside
Formula: C27H30O16
Exact mass: 612.15 
Ion type: [M-H]-
Precursor m/z: 611
m/z	relative intensity
611	100
479	100
448	100
316	100
317	100
