Mass spectrum: Rhamnosyl-hexosyl-hexosyl-hederagenin; MS2; QIT; [M-H]-; n.d.
Name: Rhamnosyl-hexosyl-hexosyl-hederagenin
Class: CLASS1 Terpenoid
Class: CLASS2 Triterpenoid
Class: CLASS3 Hederagenin glycoside
Formula: C48H78O18
Exact mass: 942.52 
Ion type: [M-H]-
Precursor m/z: 941.4
m/z	relative intensity
794.7	100
632.5	100
470.6	75
