Mass spectrum: (+)-N-[4'-Hydroxy-3-methoxy-(E)-cinnamoyl]-L-aspartic acid; MS2; QIT; [M+H]+; n.d.
Name: (+)-N-[4'-Hydroxy-3-methoxy-(E)-cinnamoyl]-L-aspartic acid
Name: N-feruloyl-L-aspartic acid
Class: CLASS1 Amino acid
Class: CLASS2 Aspartic acid
Formula: C14H15N1O7
Exact mass: 309.08 
Ion type: [M+H]+
Precursor m/z: 310
m/z	relative intensity
310	100
619	75
177	62
