Mass spectrum: 3-Caffeoyl-4-dimethoxycinnamoylquinic acid; MS2; in source CID; [M+H]+; 45V
Name: 3-Caffeoyl-4-dimethoxycinnamoylquinic acid
Class: CLASS1 Phenylpropanoid
Class: CLASS2 Phenylpropanoid ester
Class: CLASS3 Quinic acid
Exact mass: 0.00 
Ion type: [M+H]+
Precursor m/z: 544.7
m/z	relative intensity
544.9	50
380.8	15
176.8	100
144.7	42
