Mass spectrum: Isorhamnetin-3-rhamnoside; MS2; Q-TOF; [M-H]-; 15->55V
Name: Isorhamnetin-3-rhamnoside
Class: CLASS1 Flavonoid
Class: CLASS2 Flavonol
Class: CLASS3 Isorhamnetin glycoside
Exact mass: 0
Ion type: [M-H]-
Precursor m/z: 461.1083
m/z	relative intensity
461.1083	100
315.0486	20
314.0435	40
300.0282	5
299.0193	9
286.0468	3
285.042	12
271.0241	24
270.0144	5
257.0442	7
243.0276	23
242.0231	5
199.0352	3
