Mass spectrum: 2''-Caffeoylarbutin; MS2; QqQ; [M-H]-; 40V
Name: 2''-Caffeoylarbutin
Class: CLASS1 Phenylpropanoid
Class: CLASS2 Phenylpropanoid glycoside
Class: CLASS3 Caffeoyl glucoside
Exact mass: no data
Ion type: [M-H]-
Precursor m/z: 433
m/z	relative intensity
433	100
323	100
203	100
179	100
161	100
135	100
