Mass spectrum: Haplopine; MS2; QIT; [M+H]+; 35%
Name: Haplopine
Name: 7-Hydroxy-8-methoxydictamnine
Class: CLASS1 Alkaloid
Class: CLASS2 Quinoline
Class: CLASS3 Haplopine
Formula: C13H11N1O4
Exact mass: 245.07 
Ion type: [M+H]+
Precursor m/z: 246
m/z	relative intensity
246	100
231	100
