Mass spectrum: Pelargonidin (2-glucosylrutinoside); MS2; QIT; [M]+; 45%
Name: Pelargonidin (2-glucosylrutinoside)
Class: CLASS1 Flavonoid
Class: CLASS2 Anthocyanin
Class: CLASS3 Pelargonidin glycoside
Exact mass: no data
Ion type: [M]+
Precursor m/z: 741.2
m/z	relative intensity
271.2	100
595.1	100
