Mass spectrum: 3-(3-Methyl-3H-imidazol-4-ylmethyl)-1-phenyl-but-3-en-1-one; MS2; LIT; [M+H]+; 15->30V
Name: 3-(3-Methyl-3H-imidazol-4-ylmethyl)-1-phenyl-but-3-en-1-one
Class: CLASS1 Other
Class: CLASS2 Other
Class: CLASS3 Other
Formula: C15H16N2O1
Exact mass: 240.13 
Ion type: [M+H]+
Precursor m/z: 241.1328
m/z	relative intensity
241	100
209	15
163	7
121	15
105	65
95	50
96	11
