Mass spectrum: Spermidine-disinapyl; MS2; Q-TOF; [M-H]-; 15->55V
Name: Spermidine-disinapyl
Class: CLASS1 Alkaloid
Class: CLASS2 Polyamine
Class: CLASS3 Spermidine
Exact mass: 0
Ion type: [M-H]-
Precursor m/z: 556.2632
m/z	relative intensity
556.2632	100
556.0561	5
541.2582	5
376.1853	35
361.1638	12
179.0714	33
165.062	5
164.0447	12
