Mass spectrum: Hispaglabridin B; MS2; QIT; [M+H]+; 35%
Name: Hispaglabridin B
Name: 2H-1-Benzopyran-5-ol, 6-[(3R)-3,4-dihydro-8,8-dimethyl-2H,8H-benzo[1,2-b:3,4-b']dipyran-3-yl]-2,2-dimethyl-
Class: CLASS1 Flavonoid
Class: CLASS2 Isoflavane
Formula: C25H26O4
Exact mass: 390.18 
Ion type: [M+H]+
Precursor m/z: 391
m/z	relative intensity
189	100
147	10
