Mass spectrum: Tryptophan; MS2; Q-TOF; [M-H]-; 15->55V
Name: Tryptophan
Class: CLASS1 Amino acid
Class: CLASS2 Tryptophan
Formula: C11H12N2O2
Exact mass: 204.0898776
Ion type: [M-H]-
Precursor m/z: 203.0818
m/z	relative intensity
203.0818	100
186.0489	3
159.0922	18
142.0653	22
130.0652	3
116.0499	74
74.0238	32
