Mass spectrum: Sanguinarine; MS2; QIT; [M+H]+; 20->40V
Name: Sanguinarine
Class: CLASS1 Alkaloid
Class: CLASS2 Benzylisoquinoline
Class: CLASS3 Sanguinarine
Formula: C20H13N1O4
Exact mass: 331.08 
Ion type: [M+H]+
Precursor m/z: 332
m/z	relative intensity
332	100
274	100
