Mass spectrum: Quercetin-O-(hexose-deoxyhexoside); MS2; QqQ; [M-H]-; 40V
Name: Quercetin-O-(hexose-deoxyhexoside)
Class: CLASS1 Flavonoid
Class: CLASS2 Flavonol
Class: CLASS3 Quercetin glycoside
Exact mass: no data
Ion type: [M-H]-
Precursor m/z: 609
m/z	relative intensity
609	100
301	100
300	100
