Mass spectrum: 4-Hydroxy-5-methoxydihydromelilotoside; MS2; QIT; [M+H]+; 35%
Name: 4-Hydroxy-5-methoxydihydromelilotoside
Class: CLASS1 Phenylpropanoid
Class: CLASS2 Phenylpropanoid glycoside
Class: CLASS3 Melilotoside
Exact mass: no data
Ion type: [M+H]+
Precursor m/z: 375
m/z	relative intensity
375	100
213	100
195	100
