Mass spectrum: Deacetyl asperuloside acid; MS2; Q-TOF; [M-H]-; 10->20V
Name: Deacetyl asperuloside acid
Class: CLASS1 Terpenoid
Class: CLASS2 Iridoid
Class: CLASS3 Asperuloside
Exact mass: no data
Ion type: [M-H]-
Precursor m/z: 390.1
m/z	relative intensity
389.1	100
227.1	100
209	100
183.1	100
165.1	100
139	100
113	100
101	100
71	100
