Mass spectrum: Isorhamnetin; MS2; QIT; [M-H]-; 40V
Name: Isorhamnetin
Class: CLASS1 Flavonoid
Class: CLASS2 Flavonol
Class: CLASS3 Isorhamnetin glycoside
Formula: C16H12O7
Exact mass: 316.06 
Ion type: [M-H]-
Precursor m/z: 315
m/z	relative intensity
301	5
300	100
272	1
