Mass spectrum: Unknown PCE#1; MS2; Q-TOF; [M+H]+; 15->55V
Name: Unknown PCE#1
Class: CLASS1 Other
Class: CLASS2 Choline
Exact mass: 0
Ion type: [M+H]+
Precursor m/z: 505.1932
m/z	relative intensity
505.1932	3
504.1847	64
445.1124	35
283.0648	100
251.0315	3
239.0365	5
237.0198	5
223.0223	7
211.0438	9
207.0074	5
195.0115	3
179.0149	10
178.0555	5
151.0205	14
123.0313	3
