Mass spectrum: Adhyperforin; MS2; QIT; [M-H]-; n.d.
Name: Adhyperforin
Class: CLASS1 Other
Class: CLASS2 Phenol
Class: CLASS3 Phloroglucinol
Formula: C36H54O4
Exact mass: 550.40 
Ion type: [M-H]-
Precursor m/z: 549
m/z	relative intensity
480	100
397	100
313	100
