Mass spectrum: Glycosylated (2-methoxy)hydroxytyrosol 3; MS2; Q-TOF; [M+NH4]+; 15V
Name: Glycosylated (2-methoxy)hydroxytyrosol 3
Class: CLASS1 Other
Class: CLASS2 Other
Class: CLASS3 Other
Exact mass: no data
Ion type: [M+NH4]+
Precursor m/z: 364
m/z	relative intensity
3664.2313	3
315.1646	48
297.155	21
279.1347	3
261.122	1
219.1095	1
180.118	1
167.0985	24
163.0889	18
153.0795	100
145.0725	23
127.0579	3
