Mass spectrum: Clematichinenoside C; MS2; QIT; [M-H]-; 35%
Name: Clematichinenoside C
Class: CLASS1 Terpenoid
Class: CLASS2 Triterpenoid
Class: CLASS3 Clematichinenoside
Formula: C70H114O34
Exact mass: 1498.72 
Ion type: [M-H]-
Precursor m/z: 1497
m/z	relative intensity
1189	1
1027	100
865	1
