Mass spectrum: Dihydrochelerythrine; MS2; QIT; [M+H]+; 35%
Name: Dihydrochelerythrine
Name: 12,13-Dihydrochelerythrine
Class: CLASS1 Alkaloid
Class: CLASS2 Benzophenanthridine
Class: CLASS3 Chelerythrine
Formula: C21H19N1O4
Exact mass: 349.13 
Ion type: [M+H]+
Precursor m/z: 348
m/z	relative intensity
333	100
348	60
304	8
315	3
