Mass spectrum: Glabrone; MS2; QIT; [M-H]-; 35%
Name: Glabrone
Name: 4H-1-Benzopyran-4-one, 7-hydroxy-3-(5-hydroxy-2,2-dimethyl-2H-1-benzopyran-6-yl)-
Class: CLASS1 Flavonoid
Class: CLASS2 Isoflavone
Formula: C20H16O5
Exact mass: 336.10 
Ion type: [M-H]-
Precursor m/z: 335
m/z	relative intensity
320	18
307	10
292	11
291	100
213	17
