Mass spectrum: Solanacol; MS2; QIT; [M+H]+; 14V
Name: Solanacol
Class: CLASS1 Terpenoid
Class: CLASS2 Diterpenoid
Class: CLASS3 Strigolactone
Formula: C19H18O6
Exact mass: 342.11 
Ion type: [M+H]+
Precursor m/z: 342.7
m/z	relative intensity
342.7	2
307	45
279	5
251.1	2
228.9	18
211.1	21
200.9	28
182.9	60
172.9	7
157.1	19
96.9	100
