Mass spectrum: 4-Hydroxy-3-indolylmethyl glucosinolate; MS2; QIT; [M-H]-; 30->35%
Name: 4-Hydroxy-3-indolylmethyl glucosinolate
Name: 4-Hydroxyglucobrassicin
Class: CLASS1 Glucosinolate
Class: CLASS2 Indole glucosinolate
Formula: C16H20N2O10S2
Exact mass: 464.06 
Ion type: [M-H]-
Precursor m/z: 463
m/z	relative intensity
463	100
383	100
291	100
285	100
275	100
267	100
259	100
241	100
160	100
