Mass spectrum: Ginsenoside Rb2; MS2; QIT; [M-H]-; 50%
Name: Ginsenoside Rb2
Name: Ginsenoside C
Class: CLASS1 Terpenoid
Class: CLASS2 Triterpenoid
Class: CLASS3 Ginsenoside
Formula: C53H90O22
Exact mass: 1078.59 
Ion type: [M-H]-
Precursor m/z: 1079.29
m/z	relative intensity
1078.4	100
946.3	100
915.9	57
784.1	36
765.9	13
622.4	13
