Mass spectrum: 3-Hydroxy-n-propyl glucosinolate; MS2; Q-TOF; [M-H]-; 15->55V
Name: 3-Hydroxy-n-propyl glucosinolate
Class: CLASS1 Glucosinolate
Class: CLASS2 Aliphatic glucosinolate
Formula: C10H19N1O10S2
Exact mass: 377.0450378
Ion type: [M-H]-
Precursor m/z: 377.2514
m/z	relative intensity
377.2514	4
376.0378	100
96.959	38
95.9525	21
79.9556	5
74.9901	28
