Mass spectrum: Glycyrrhizinic acid; MS2; QIT; [M+H]+; 35%
Name: Glycyrrhizinic acid
Name: .alpha.-D-Glucopyranosiduronic acid, (3.beta.,20.beta.)-20-carboxy-11-oxo-30-norolean-12-en-3-yl 2-O-.beta.-D-glucopyranuronosyl-
Class: CLASS1 Terpenoid
Class: CLASS2 Triterpenoid
Class: CLASS3 Glycyrrhizininc acid
Formula: C42H62O16
Exact mass: 822.40 
Ion type: [M+H]+
Precursor m/z: 823
m/z	relative intensity
647	30
471	16
453	100
