Mass spectrum: Scoulerine; MS2; QIT; [M+H]+; 20->40V
Name: Scoulerine
Class: CLASS1 Alkaloid
Class: CLASS2 Isoquinoline
Class: CLASS3 Scoulerine
Formula: C19H21N1O4
Exact mass: 327.15 
Ion type: [M+H]+
Precursor m/z: 328
m/z	relative intensity
328	33
178	100
151	18
