Mass spectrum: 3',4',5'-Trihydroxyl 3''-methoxyl 4''-caffeoyl lignan; MS2; QIT; [M-H]-; 45%
Name: 3',4',5'-Trihydroxyl 3''-methoxyl 4''-caffeoyl lignan
Class: CLASS1 Other
Class: CLASS2 Other
Class: CLASS3 Other
Exact mass: no data
Ion type: [M-H]-
Precursor m/z: 521
m/z	relative intensity
521	100
477	5
359	18
315	100
297	13
163	9
