Mass spectrum: AMP; MS2; Q-TOF; [M+H]+; 15->55V
Name: AMP
Name: Adenosine-5'-monophosphate
Class: CLASS1 Other
Class: CLASS2 Nucleotide
Class: CLASS3 Adenosine phosphate
Formula: C10H14N5O7P1
Exact mass: 347.0630848
Ion type: [M+H]+
Precursor m/z: 133.9761
m/z	relative intensity
133.9761	8
132.1025	7
124.9638	6
117.9607	3
115.9651	22
99.5094	12
98.9601	4
88.0018	8
86.0963	100
69.0705	13
