Mass spectrum: 4-Caffeoylquinic acids; MS2; QqQ; [M-H]-; 40eV
Name: 4-Caffeoylquinic acids
Name: Cyclohexanecarboxylic acid, 4-[[3-(3,4-dihydroxyphenyl)-1-oxo-2-propen-1-yl]oxy]-1,3,5-trihydroxy-, (1.alpha.,3R,4.alpha.,5R)-
Class: CLASS1 Phenylpropanoid
Class: CLASS2 Phenylpropanoid ester
Class: CLASS3 Quinic acid
Formula: C16H18N0O9
Exact mass: 354.10 
Ion type: [M-H]-
Precursor m/z: 352.8
m/z	relative intensity
191	34
178.9	13
172.9	25
134.9	100
133.6	13
92.7	52
84.6	26
58.5	13
