Mass spectrum: Malvidin 3-glucoside-5-glucoside p-coumaric; MS2; QqQ; [M]+; 15->30V
Name: Malvidin 3-glucoside-5-glucoside p-coumaric
Class: CLASS1 Flavonoid
Class: CLASS2 Anthocyanin
Class: CLASS3 Malvidin glycoside
Formula: C38H41O19Cl1
Exact mass: 801.22 
Ion type: [M]+
Precursor m/z: 801.2
m/z	relative intensity
639.2	100
492.8	100
331.2	100
