Mass spectrum: 4-Methoxyindol-3-ylmethyl glucosinolate; MS2; Q-TOF; [M-H]-; 15->55V
Name: 4-Methoxyindol-3-ylmethyl glucosinolate
Class: CLASS1 Glucosinolate
Class: CLASS2 Indole glucosinolate
Formula: C17H21N2O10S2
Exact mass: 477.0637619
Ion type: [M-H]-
Precursor m/z: 477.0612
m/z	relative intensity
477.0612	100
96.9603	39
95.9522	19
79.9592	4
74.9923	11
