Mass spectrum: 3-Methylthio-n-propyl glucosinolate; MS2; Q-TOF; [M-H]-; 15->55V
Name: 3-Methylthio-n-propyl glucosinolate
Name: Glucoiberverin
Class: CLASS1 Glucosinolate
Class: CLASS2 Aliphatic glucosinolate
Formula: C11H20N1O9S3
Exact mass: 406.0300192
Ion type: [M-H]-
Precursor m/z: 406.0335
m/z	relative intensity
406.0335	100
259.0118	4
209.9889	3
96.9619	55
95.9494	40
74.992	30
65.4594	3
