Mass spectrum: Fisetin; MS2; QIT; [M+H]+; 20->60%
Name: Fisetin
Name: 4H-1-Benzopyran-4-one, 2-(3,4-dihydroxyphenyl)-3,7-dihydroxy-
Class: CLASS1 Flavonoid
Class: CLASS2 Flavonol
Class: CLASS3 Fisetin
Formula: C15H10O6
Exact mass: 286.05 
Ion type: [M+H]+
Precursor m/z: 287
m/z	relative intensity
287	22
269	53
259	19
251	3
241	100
231	57
213	80
245	9
203	80
171	1
147	1
149	40
121	10
139	5
137	20
149	1
95	1
93	3
195	2
177	4
