Mass spectrum: Astaxanthin monoester 18:1; MS2; QIT; [M-H]-; 43.2->8V
Name: Astaxanthin monoester 18:1
Class: CLASS1 Terpenoid
Class: CLASS2 Carotenoid
Class: CLASS3 Astaxanthin
Exact mass: no data
Ion type: [M-H]-
Precursor m/z: 859
m/z	relative intensity
859	100
