Mass spectrum: Calycosin 7-O-glucoside; MS2; QIT; [M+H]+; 4.5V
Name: Calycosin 7-O-glucoside
Class: CLASS1 Flavonoid
Class: CLASS2 Isoflavone
Class: CLASS3 Calycosin
Formula: C22H22O10
Exact mass: 446.12 
Ion type: [M+H]+
Precursor m/z: 447.1294
m/z	relative intensity
285.0762	100
