Mass spectrum: Gardoside methyl ester; MS2; Q-TOF; [M-H]-; 10->20V
Name: Gardoside methyl ester
Class: CLASS1 Terpenoid
Class: CLASS2 Iridoid
Class: CLASS3 Gardoside
Formula: C17H24O10
Exact mass: 388.14 
Ion type: [M-H]-
Precursor m/z: 373.1032
m/z	relative intensity
373.1	5
211.1	5
194.1	10
193.1	100
179.1	8
167.1	28
149.1	15
131	2
123	10
101	10
89	5
71	5
59	2
