Mass spectrum: 11-Methyloleoside; MS2; QIT; [M-H]-; n.d.
Name: 11-Methyloleoside
Class: CLASS1 Other
Class: CLASS2 Carboxylic acid
Class: CLASS3 Other
Exact mass: no data
Ion type: [M-H]-
Precursor m/z: 403
m/z	relative intensity
371	100
342	100
269	100
223	100
