Mass spectrum: Feruoyl di-coumaroyl spermidine; MS2; Q-TOF; [M+H]+; 20V
Name: Feruoyl di-coumaroyl spermidine
Class: CLASS1 Alkaloid
Class: CLASS2 Polyamine
Class: CLASS3 Spermidine
Formula: C35H39N3O7
Exact mass: 613.28 
Ion type: [M+H]+
Precursor m/z: 613.2788
m/z	relative intensity
614.2854	100
468.25	100
438.24	100
147.0447	100
177.0544	100
204.1035	100
275.1763	100
292.2064	100
420.2299	100
