Mass spectrum: Taxifolin-3-alpha-L-rhamnopyranoside; MS2; QIT; [M-H]-; 35%
Name: Taxifolin-3-alpha-L-rhamnopyranoside
Class: CLASS1 Flavonoid
Class: CLASS2 Flavonol
Class: CLASS3 Quercetin glycoside
Formula: C21H20O11
Exact mass: 448.10 
Ion type: [M-H]-
Precursor m/z: 449.2
m/z	relative intensity
303.1	100
285.3	100
