Mass spectrum: Galloylpaeoniflorin; MS2; Q-TOF; [M-H]-; 20->80V
Name: Galloylpaeoniflorin
Class: CLASS1 Terpenoid
Class: CLASS2 Monoterpenoid
Class: CLASS3 Paeoniflorin
Formula: C30H32O15
Exact mass: 632.17 
Ion type: [M-H]-
Precursor m/z: 631
m/z	relative intensity
613	100
491	100
479	100
399	100
313	100
271	100
211	100
169	100
125	100
131	100
