Mass spectrum: Pantothenic acid; MS2; Q-TOF; [M+H]+; 15->55V
Name: Pantothenic acid
Class: CLASS1 Other
Class: CLASS2 Vitamine
Formula: C9H17N1O5
Exact mass: 219.1106727
Ion type: [M+H]+
Precursor m/z: 220.1081
m/z	relative intensity
220.1081	100
202.0981	47
184.0856	31
174.1049	3
166.0738	3
160.0878	3
156.0851	3
142.0811	8
137.9513	3
124.0691	20
116.0274	17
103.0681	12
98.0199	16
95.044	7
90.0481	92
85.0576	6
70.0234	6
69.0641	7
67.0491	4
