Mass spectrum: Vanilloylcholine(4-O-b)G; MS2; Q-TOF; [M+H]+; 15->55V
Name: Vanilloylcholine(4-O-b)G
Name: 4-[2-Hydroxy-2-(4-hydroxy-3-methoxyphenyl)-1-hydroxymethylethoxy]-3-methoxybenzoylcholine
Class: CLASS1 Phenylpropanoid
Class: CLASS2 Phenylpropanoid ester
Class: CLASS3 Choline
Exact mass: 0
Ion type: [M+H]+
Precursor m/z: 450.2099
m/z	relative intensity
450.2099	55
391.1388	14
195.0651	100
151.0381	39
123.0423	3
