Mass spectrum: Coclaurine; MS2; QIT; [M+H]+; 20->40V
Name: Coclaurine
Class: CLASS1 Alkaloid
Class: CLASS2 Benzylisoquinoline
Class: CLASS3 Coclaurine
Formula: C17H19N1O3
Exact mass: 285.14 
Ion type: [M+H]+
Precursor m/z: 286
m/z	relative intensity
286	20
269	61
254	4
237	27
209	16
175	34
145	11
143	8
137	11
107	100
