Mass spectrum: Quercetin 3-O-rutinoside; MS2; QqQ; [M-H]-; n.d.
Name: Quercetin 3-O-rutinoside
Name: 4H-1-Benzopyran-4-one, 3-[[6-O-(6-deoxy-.alpha.-L-mannopyranosyl)-.beta.-D-glucopyranosyl]oxy]-2-(3,4-dihydroxyphenyl)-5,7-dihydroxy-
Class: CLASS1 Flavonoid
Class: CLASS2 Flavonol
Class: CLASS3 Quercetin glycoside
Formula: C27H29O16
Exact mass: 609.15 
Ion type: [M-H]-
Precursor m/z: 609
m/z	relative intensity
609	50
300	100
