Mass spectrum: Kaempferol-3-glucoside; MS2; Q-TOF; [M+H]+; 15->55V
Name: Kaempferol-3-glucoside
Class: CLASS1 Flavonoid
Class: CLASS2 Flavonol
Class: CLASS3 Kaempferol glycoside
Formula: C21H20O11
Exact mass: 448.1005615
Ion type: [M+H]+
Precursor m/z: 449.2285
m/z	relative intensity
449.2285	3
449.0973	15
303.0549	100
287.1373	4
201.0501	3
177.0593	3
164.0252	4
153.0125	7
