Mass spectrum: Benzoic acid; MS2; in source CID; [M-H]-; 40V
Name: Benzoic acid
Class: CLASS1 Other
Class: CLASS2 Benzoic acid
Class: CLASS3 Benzoic acid
Formula: C7H6O2
Exact mass: 122.04 
Ion type: [M-H]-
Precursor m/z: 122
m/z	relative intensity
121	100
