Mass spectrum: Glabridin; MS2; QIT; [M+H]+; 35%
Name: Glabridin
Name: 1,3-Benzenediol, 4-[(3R)-3,4-dihydro-8,8-dimethyl-2H,8H-benzo[1,2-b:3,4-b']dipyran-3-yl]-
Class: CLASS1 Flavonoid
Class: CLASS2 Isoflavane
Formula: C20H20O4
Exact mass: 324.14 
Ion type: [M+H]+
Precursor m/z: 325
m/z	relative intensity
269	14
215	8
203	21
189	100
123	35
