Mass spectrum: Ethyl lithospermate; MS2; QIT; [M-H]-; 20->50%
Name: Ethyl lithospermate
Class: CLASS1 Other
Class: CLASS2 Other
Class: CLASS3 Other
Formula: C29H26O12
Exact mass: 566.14 
Ion type: [M-H]-
Precursor m/z: 565
m/z	relative intensity
519	12
367	60
339	11
321	100
