Mass spectrum: Dimethyloleuropein 6; MS2; Q-TOF; [M+NH4]+; 15V
Name: Dimethyloleuropein 6
Class: CLASS1 Other
Class: CLASS2 Other
Class: CLASS3 Other
Exact mass: no data
Ion type: [M+NH4]+
Precursor m/z: 586
m/z	relative intensity
586.206	3
407.1266	33
389.1172	100
375.1013	30
347.106	5
225.069	15
165.0517	60
