Mass spectrum: Apigenin 7-O-glucuronide; MS2; QqQ; [M-H]-; 50V
Name: Apigenin 7-O-glucuronide
Class: CLASS1 Flavonoid
Class: CLASS2 Flavone
Class: CLASS3 Apigenin glycoside
Formula: C21H18O11
Exact mass: 446.08 
Ion type: [M-H]-
Precursor m/z: 445
m/z	relative intensity
445	100
269	100
175	100
