Mass spectrum: Dihydroxy kaempferol; MS2; QIT; [M-H]-; n.d.
Name: Dihydroxy kaempferol
Class: CLASS1 Flavonoid
Class: CLASS2 Flavonol
Class: CLASS3 Dihydrokaempferol
Exact mass: no data
Ion type: [M-H]-
Precursor m/z: 287
m/z	relative intensity
259	100
