Mass spectrum: Quercetin-3-pentosylhexoside-7-deoxyhexoside; MS2; Q-TOF; [M+H]+; 15->55V
Name: Quercetin-3-pentosylhexoside-7-deoxyhexoside
Class: CLASS1 Flavonoid
Class: CLASS2 Flavonol
Class: CLASS3 Quercetin glycoside
Exact mass: 0
Ion type: [M+H]+
Precursor m/z: 743.1774
m/z	relative intensity
743.1774	10
597.1551	21
465.1052	61
303.0501	100
111.0204	7
100.5049	12
99.5116	22
90.5079	7
