Mass spectrum: Pelargonodin 3-rutinoside-5-glucoside ferulic; MS2; QqQ; [M]+; 15->30V
Name: Pelargonodin 3-rutinoside-5-glucoside ferulic
Class: CLASS1 Flavonoid
Class: CLASS2 Anthocyanin
Class: CLASS3 Pelargonidin glycoside
Formula: C43H51O22Cl1
Exact mass: 919.29 
Ion type: [M]+
Precursor m/z: 919.6
m/z	relative intensity
755.2	100
433.2	100
271.2	100
