Mass spectrum: Quercetin-trihexoside; MS2; Q-TOF; [M+H]+; 15->55V
Name: Quercetin-trihexoside
Class: CLASS1 Flavonoid
Class: CLASS2 Flavonol
Class: CLASS3 Quercetin glycoside
Exact mass: 0
Ion type: [M+H]+
Precursor m/z: 789.2278
m/z	relative intensity
789.2278	15
627.1517	15
465.1024	77
303.052	100
145.0376	3
112.0189	6
111.0164	8
100.5032	7
99.5086	13
90.5043	4
