Mass spectrum: 3-Methylsulfinyl-n-propyl glucosinolate; MS2; Q-TOF; [M-H]-; 15->55V
Name: 3-Methylsulfinyl-n-propyl glucosinolate
Name: glucoiberin
Class: CLASS1 Glucosinolate
Class: CLASS2 Aliphatic glucosinolate
Formula: C11H21N1O10S3
Exact mass: 423.0327589
Ion type: [M-H]-
Precursor m/z: 422.0266
m/z	relative intensity
422.0266	100
358.0203	15
247.9363	7
96.9593	37
95.9519	32
79.9564	7
74.9923	18
