Mass spectrum: 1,2-Didehydrotanshinone IIA; MS2; QIT; [M+H]+; 20->50%
Name: 1,2-Didehydrotanshinone IIA
Class: CLASS1 Terpenoid
Class: CLASS2 Diterpenoid
Class: CLASS3 Cryptotanshinone
Formula: C19H20O3
Exact mass: 296.14 
Ion type: [M+H]+
Precursor m/z: 297
m/z	relative intensity
297	7
279	100
251	80
237	6
181	3
