Mass spectrum: Spermidine-diferuloyl-hydroxyferuloyl; MS2; Q-TOF; [M+H]+; 15->55V
Name: Spermidine-diferuloyl-hydroxyferuloyl
Class: CLASS1 Alkaloid
Class: CLASS2 Polyamine
Class: CLASS3 Spermidine
Exact mass: 0
Ion type: [M+H]+
Precursor m/z: 691.2721
m/z	relative intensity
691.2721	8
690.2984	100
514.259	36
498.2787	4
496.2343	22
250.0967	12
234.1093	8
177.0516	18
145.0257	4
