Mass spectrum: Dihydro-11,12'-dehydroergocrystine; MS2; QIT; [M+H]+; 25->30V
Name: Dihydro-11,12'-dehydroergocrystine
Class: CLASS1 Alkaloid
Class: CLASS2 Ergot
Class: CLASS3 Ergocristine
Exact mass: no data
Ion type: [M+H]+
Precursor m/z: 350.1
m/z	relative intensity
350.1	100
322.2	90
307.2	31
279.2	14
223.2	13
208.2	13
