Mass spectrum: Ergocryptine; MS2; QIT; [M+H]+; 25->30V
Name: Ergocryptine
Class: CLASS1 Alkaloid
Class: CLASS2 Ergot
Class: CLASS3 Ergocryptine
Formula: C32H41N5O5
Exact mass: 575.31 
Ion type: [M+H]+
Precursor m/z: 558.1
m/z	relative intensity
558.1	100
348.1	17
305.1	5
268.1	50
