Mass spectrum: Ginsenoside Ra1; MS2; QIT; [M-H]-; 50%
Name: Ginsenoside Ra1
Name: Ginsenoside Ra2
Class: CLASS1 Terpenoid
Class: CLASS2 Triterpenoid
Class: CLASS3 Ginsenoside
Formula: C58H98O26
Exact mass: 1210.63 
Ion type: [M-H]-
Precursor m/z: 1211.41
m/z	relative intensity
1210.7	100
1078.3	100
766.1	100
