Mass spectrum: Orobanchol; MS2; QIT; [M+H]+; 14V
Name: Orobanchol
Class: CLASS1 Terpenoid
Class: CLASS2 Sesquiterpenoid
Class: CLASS3 Other
Formula: C19H22O6
Exact mass: 346.14 
Ion type: [M+H]+
Precursor m/z: 347.2
m/z	relative intensity
347.2	10
329.1	41
301.3	4
257.2	3
233.1	100
205.2	63
187	2
135.1	10
97	72
