Mass spectrum: Edulinine; MS2; QIT; [M+H]+; 35%
Name: Edulinine
Class: CLASS1 Other
Class: CLASS2 Other
Class: CLASS3 Other
Formula: C16H21N1O4
Exact mass: 291.15 
Ion type: [M+H]+
Precursor m/z: 292
m/z	relative intensity
292	100
274	100
