Mass spectrum: Lipedoside A; MS2; QIT; [M-H]-; 45%
Name: Lipedoside A
Class: CLASS1 Terpenoid
Class: CLASS2 Monoterpenoid
Class: CLASS3 Lipedoside
Formula: C29H36O14
Exact mass: 608.21 
Ion type: [M-H]-
Precursor m/z: 607
m/z	relative intensity
607	100
461	86
443	100
401	1
