Mass spectrum: 7-Methylsulfinyl-n-heptyl glucosinolate; MS2; Q-TOF; [M-H]-; 15->55V
Name: 7-Methylsulfinyl-n-heptyl glucosinolate
Name: glucoibarin
Class: CLASS1 Glucosinolate
Class: CLASS2 Aliphatic glucosinolate
Formula: C15H29N1O10S3
Exact mass: 479.0953592
Ion type: [M-H]-
Precursor m/z: 478.0867
m/z	relative intensity
478.0867	100
463.0611	5
414.0895	22
96.9622	64
95.9543	43
79.9601	8
74.9942	16
