Mass spectrum: Calycosin; MS2; QIT; [M+H]+; 4.5V
Name: Calycosin
Class: CLASS1 Flavonoid
Class: CLASS2 Isoflavone
Class: CLASS3 Calycosin
Formula: C16H12O5
Exact mass: 284.07 
Ion type: [M+H]+
Precursor m/z: 285.0763
m/z	relative intensity
270.0524	100
253.05	70
225.054	50
