Mass spectrum: 1,3,5-Tricaffeoylquinic acid; MS2; QIT; [M-H]-; 40%
Name: 1,3,5-Tricaffeoylquinic acid
Class: CLASS1 Phenylpropanoid
Class: CLASS2 Phenylpropanoid ester
Class: CLASS3 Quinic acid
Formula: C34H30O15
Exact mass: 678.16 
Ion type: [M-H]-
Precursor m/z: 677
m/z	relative intensity
515	32
497	100
469	2
353	14
335	7
