Mass spectrum: Procyanidin pentamer; MS2; Q-TOF; [M-2H]2-; 20V
Name: Procyanidin pentamer
Class: CLASS1 Tannin
Class: CLASS2 Proanthocyanidin
Formula: C75H62O30
Exact mass: 1442.33 
Ion type: [M-2H]2-
Precursor m/z: 1442.3326
m/z	relative intensity
720.157	100
863.1812	100
575.1183	100
1151.2635	100
965.2538	100
693.1073	100
577.1299	100
449.082	100
407.0736	100
289.0717	100
243.0298	100
