Mass spectrum: Macckinine; MS2; QIT; [M+H]+; 0.6V
Name: Macckinine
Class: CLASS1 Alkaloid
Class: CLASS2 Steroid
Class: CLASS3 Macckinine
Formula: C39H57N1O11
Exact mass: 715.39 
Ion type: [M+H]+
Precursor m/z: 716.8
m/z	relative intensity
656.6	100
638.4	100
538.4	100
438.4	100
420.3	100
420.2	100
