Mass spectrum: Ternatin A1; MS2; QIT; [M+H]+; n.d.
Name: Ternatin A1
Class: CLASS1 Flavonoid
Class: CLASS2 Flavone
Class: CLASS3 Ternatin
Exact mass: no data
Ion type: [M+H]+
Precursor m/z: 2107
m/z	relative intensity
1945	100
1799	100
1783	100
1637	100
1475	100
1329	100
1167	100
