Mass spectrum: Anatabine; MS2; QIT; [M+H]+; 25%
Name: Anatabine
Class: CLASS1 Alkaloid
Class: CLASS2 Pyridine
Class: CLASS3 Anatabine
Formula: C10H12O2
Exact mass: 164.08 
Ion type: [M+H]+
Precursor m/z: 161
m/z	relative intensity
161	100
144	100
117	100
