Mass spectrum: 10-Deacetyl taxuyunnanine A; MS2; in source CID; [M-H]-; 40V
Name: 10-Deacetyl taxuyunnanine A
Class: CLASS1 Terpenoid
Class: CLASS2 Diterpenoid
Class: CLASS3 Taxuyunnanine
Formula: C44H55N1O13
Exact mass: 805.37 
Ion type: [M-H]-
Precursor m/z: 805
m/z	relative intensity
850	100
804	100
762	100
565	100
