Mass spectrum: hepta-Galloyl-b-D-glucopyranose; MS2; QIT-TOF; [M+K-H2O]+; nd
Name: hepta-Galloyl-b-D-glucopyranose
Class: CLASS1 Tannin
Class: CLASS2 Gallotannin
Class: CLASS3 Galloyl glycoside
Exact mass: 1244.00 
Ion type: [M+K-H2O]+
Precursor m/z: 1265
m/z	relative intensity
100	1113
100	1095
100	961
100	943
100	809
100	791
100	773
100	657
100	639
100	621
100	487
100	469
100	495
100	0
