Mass spectrum: Tanshindiol B; MS2; QIT; [M+H]+; 40%
Name: Tanshindiol B
Name: Phenanthro[1,2-b]furan-10,11-dione, 6,7,8,9-tetrahydro-6,7-dihydroxy-1,6-dimethyl-, (6R,7S)-
Class: CLASS1 Terpenoid
Class: CLASS2 Diterpenoid
Class: CLASS3 tanshinone
Formula: C18H16O5
Exact mass: 312.10 
Ion type: [M+H]+
Precursor m/z: 313
m/z	relative intensity
295	100
285	9
283	8
267	12
