Mass spectrum: Quercetin-trirhamnoside; MS2; Q-TOF; [M+H]+; 15->55V
Name: Quercetin-trirhamnoside
Class: CLASS1 Flavonoid
Class: CLASS2 Flavonol
Class: CLASS3 Quercetin glycoside
Exact mass: 0
Ion type: [M+H]+
Precursor m/z: 741.2255
m/z	relative intensity
741.2255	20
595.1635	34
449.1133	54
433.1062	8
413.0816	3
303.051	100
287.0547	19
239.0961	3
163.0592	3
147.0646	4
129.0572	12
111.0349	3
85.0277	20
71.0484	11
