Mass spectrum: 3-Furanone, 2-(3-methoxy-4-hydroxylphenyl)-4-veratryl; MS2; QIT; [M-H]-; 45%
Name: 3-Furanone, 2-(3-methoxy-4-hydroxylphenyl)-4-veratryl
Class: CLASS1 Other
Class: CLASS2 Other
Class: CLASS3 Other
Exact mass: no data
Ion type: [M-H]-
Precursor m/z: 357
m/z	relative intensity
357	100
342	17
327	100
312	4
