Mass spectrum: 5-p-Coumaroylquinic acids; MS2; QqQ; [M-H]-; 40eV
Name: 5-p-Coumaroylquinic acids
Name: Cyclohexanecarboxylic acid, 1,3,4-trihydroxy-5-[[3-(4-hydroxyphenyl)-1-oxo-2-propen-1-yl]oxy]-, (1R,3R,4S,5R)-
Class: CLASS1 Phenylpropanoid
Class: CLASS2 Phenylpropanoid ester
Class: CLASS3 Quinic acid
Formula: C16H18N0O8
Exact mass: 338.10 
Ion type: [M-H]-
Precursor m/z: 336.8
m/z	relative intensity
190.9	85
162.8	18
118.8	64
92.7	100
