Mass spectrum: Cyanidin glycoside; MS2; QIT; [M]+; 25.4V
Name: Cyanidin glycoside
Class: CLASS1 Flavonoid
Class: CLASS2 Anthocyanin
Class: CLASS3 Cyanidin glycoside
Exact mass: no data
Ion type: [M]+
Precursor m/z: 595
m/z	relative intensity
595	100
287	100
