Mass spectrum: Phytolaccagenic acid 3-O-arabinose; MS2; QIT; [M+H]+; 200V
Name: Phytolaccagenic acid 3-O-arabinose
Class: CLASS1 Terpenoid
Class: CLASS2 Triterpenoid
Class: CLASS3 Phytolaccagenic acid
Formula: C36H56O10
Exact mass: 648.39 
Ion type: [M+H]+
Precursor m/z: 811
m/z	relative intensity
649	100
517	100
