Mass spectrum: di-Caffeoyl coumaroyl spermidine; MS2; Q-TOF; [M+H]+; 20V
Name: di-Caffeoyl coumaroyl spermidine
Class: CLASS1 Alkaloid
Class: CLASS2 Polyamine
Class: CLASS3 Spermidine
Formula: C34H37N3O8
Exact mass: 615.26 
Ion type: [M+H]+
Precursor m/z: 615.2581
m/z	relative intensity
616.2637	100
454.2351	100
470.2308	100
308.1991	100
163.0397	100
292.201	100
147.0453	100
220.0982	100
