Mass spectrum: Malonyl ginsenoside Rd; MS2; QIT; [M-H]-; 50%
Name: Malonyl ginsenoside Rd
Class: CLASS1 Terpenoid
Class: CLASS2 Triterpenoid
Class: CLASS3 Ginsenoside
Formula: C51H84O21
Exact mass: 1032.55 
Ion type: [M-H]-
Precursor m/z: 1033.22
m/z	relative intensity
1032.1	5
970.1	5
945.3	100
928.2	35
784	100
765.9	4
