Mass spectrum: Kaempferol 3,7-O-dirhamnopyranoside; MS2; Q-TOF; [M+H]+; 15->55V
Name: Kaempferol 3,7-O-dirhamnopyranoside
Class: CLASS1 Flavonoid
Class: CLASS2 Flavonol
Class: CLASS3 Kaempferol glycoside
Formula: C27H30O14
Exact mass: 578.1635557
Ion type: [M+H]+
Precursor m/z: 579.1713
m/z	relative intensity
579.1713	8
433.1076	47
288.0596	3
287.0553	100
129.0536	5
85.0222	12
71.0404	7
