Mass spectrum: Naringenin O-hexoside malonylated II; MS2; QqQ; [M+H]+; 27%
Name: Naringenin O-hexoside malonylated II
Class: CLASS1 Flavonoid
Class: CLASS2 Chalcone
Class: CLASS3 Naringenin glycoside
Exact mass: no data
Ion type: [M+H]+
Precursor m/z: 521
m/z	relative intensity
521	100
381	100
339	100
315	100
297	100
285	100
273	100
261	100
219	100
195	100
159	100
153	100
147	100
129	100
127	100
109	100
