Mass spectrum: Anhydropilosine; MS2; LIT; [M+H]+; 15->30V
Name: Anhydropilosine
Class: CLASS1 Alkaloid
Class: CLASS2 Imidazole
Class: CLASS3 Anhydropilosine
Formula: C16H16N2O2
Exact mass: 268.12 
Ion type: [M+H]+
Precursor m/z: 269.1237
m/z	relative intensity
269	64
251	12
223	18
182	6
143	5
121	17
117	10
95	100
