Mass spectrum: 9-(Methylsulfinyl)nonanenitrile; MS2; Q-TOF; [M+H]+; 15->55V
Name: 9-(Methylsulfinyl)nonanenitrile
Class: CLASS1 Other
Class: CLASS2 Other
Class: CLASS3 Other
Exact mass: 0
Ion type: [M+H]+
Precursor m/z: 202.1264
m/z	relative intensity
202.1264	100
138.1269	30
121.1029	4
96.0829	14
95.0867	8
93.0704	28
82.0667	9
81.0723	3
79.0548	11
77.0373	3
