Mass spectrum: 4-Methylthio-n-butyl glucosinolate; MS2; Q-TOF; [M-H]-; 15->55V
Name: 4-Methylthio-n-butyl glucosinolate
Name: glucoerucin
Class: CLASS1 Glucosinolate
Class: CLASS2 Aliphatic glucosinolate
Formula: C12H22N1O9S3
Exact mass: 420.0456693
Ion type: [M-H]-
Precursor m/z: 420.0468
m/z	relative intensity
420.0468	100
96.9628	62
95.9551	38
79.961	7
74.9943	30
