Mass spectrum: [10]-Gingerol; MS2; QIT; [M+H]+; 5kV
Name: [10]-Gingerol
Class: CLASS1 Other
Class: CLASS2 Phenol
Class: CLASS3 Gingerol
Formula: C21H34O4
Exact mass: 350.25 
Ion type: [M+H]+
Precursor m/z: 351.5
m/z	relative intensity
333.5	100
373.4	100
368.5	100
723.5	100
351.5	100
