Mass spectrum: Mudanoside B; MS2; Q-TOF; [M-H]-; 20->80V
Name: Mudanoside B
Class: CLASS1 Other
Class: CLASS2 Benzoic acid
Class: CLASS3 Mudanosid
Formula: C18H24O14
Exact mass: 464.12 
Ion type: [M-H]-
Precursor m/z: 463
m/z	relative intensity
433	100
331	100
301	100
241	100
169	100
