Mass spectrum: Malvidin 3-O-(6-O-acetyl)glucoside; MS2; QqQ; [M]+; n.d.
Name: Malvidin 3-O-(6-O-acetyl)glucoside
Class: CLASS1 Flavonoid
Class: CLASS2 Anthocyanin
Class: CLASS3 Malvidin glycoside
Formula: C25H27O13
Exact mass: 535.15 
Ion type: [M]+
Precursor m/z: 535
m/z	relative intensity
535	50
331	100
316	100
