Mass spectrum: Salvianolic acid H; MS2; QIT; [M-H]-; 20->50%
Name: Salvianolic acid H
Class: CLASS1 Phenylpropanoid
Class: CLASS2 Lignan
Class: CLASS3 Salvianolic acid
Formula: C27H21O12
Exact mass: 537.10 
Ion type: [M-H]-
Precursor m/z: 537
m/z	relative intensity
537	14
493	100
295	18
