Mass spectrum: Cyclo(Phe-Tyr); MS2; QIT; [M+H]+; 35%
Name: Cyclo(Phe-Tyr)
Class: CLASS1 Amino acid
Class: CLASS2 Peptide
Class: CLASS3 Cyclopeptide
Formula: C18H18N2O3
Exact mass: 310.13 
Ion type: [M+H]+
Precursor m/z: 311
m/z	relative intensity
311	24
283	26
266	4
238	22
205	16
147	4
136	100
120	76
119	3
107	22
