Mass spectrum: Hypericin; MS2; QIT; [M]+; n.d.
Name: Hypericin
Class: CLASS1 Other
Class: CLASS2 Phenol
Class: CLASS3 Phloroglucinol
Formula: C30H16O8
Exact mass: 504.08 
Ion type: [M]+
Precursor m/z: 503
m/z	relative intensity
487	100
459	100
443	100
431	100
415	100
405	100
388	100
