Mass spectrum: Isorhoifolin; MS2; QIT; [M-H]-; n.d.
Name: Isorhoifolin
Class: CLASS1 Flavonoid
Class: CLASS2 Flavone
Class: CLASS3 Apigenin glycoside
Formula: C27H30O14
Exact mass: 578.16 
Ion type: [M-H]-
Precursor m/z: 577
m/z	relative intensity
269	100
