Mass spectrum: Coumaroyl di-feruoyl spremidine; MS2; Q-TOF; [M+H]+; 20V
Name: Coumaroyl di-feruoyl spremidine
Class: CLASS1 Alkaloid
Class: CLASS2 Polyamine
Class: CLASS3 Spermidine
Formula: C36H41N3O8
Exact mass: 643.29 
Ion type: [M+H]+
Precursor m/z: 643.2894
m/z	relative intensity
644.297	100
468.25	100
322.22	100
177.053	100
498.2608	100
450.2401	100
305.1911	100
318.1787	100
234.1038	100
