Mass spectrum: Disinapoyl Hydroxy Feruloyl Diglycoside; MS2; QIT; [M-H]-; 40V
Name: Disinapoyl Hydroxy Feruloyl Diglycoside
Class: CLASS1 Phenylpropanoid
Class: CLASS2 Phenylpropanoid glycoside
Class: CLASS3 Other
Formula: C44H50O23
Exact mass: 946.27 
Ion type: [M-H]-
Precursor m/z: 945
m/z	relative intensity
721	100
515	10
