Mass spectrum: Benzoyloxypaeoniflorin; MS2; Q-TOF; [M-H]-; 20->80V
Name: Benzoyloxypaeoniflorin
Class: CLASS1 Terpenoid
Class: CLASS2 Monoterpenoid
Class: CLASS3 Paeoniflorin
Formula: C30H32O13
Exact mass: 600.18 
Ion type: [M-H]-
Precursor m/z: 599
m/z	relative intensity
551	100
447	100
431	100
281	100
137	100
121	100
