Mass spectrum: Quercetin pentose glucuronide; MS2; Q-TOF; [M+H]+; 20V
Name: Quercetin pentose glucuronide
Class: CLASS1 Flavonoid
Class: CLASS2 Flavonol
Class: CLASS3 Quercetin glycoside
Formula: C26H26O17
Exact mass: 610.12 
Ion type: [M+H]+
Precursor m/z: 610.117
m/z	relative intensity
611.122	100
479.0811	100
303.0514	100
