Mass spectrum: Ginsenoside Re; MS2; QIT; [M-H]-; 50%
Name: Ginsenoside Re
Name: Sanchinoside Re
Class: CLASS1 Terpenoid
Class: CLASS2 Triterpenoid
Class: CLASS3 Ginsenoside
Formula: C48H82O18
Exact mass: 946.55 
Ion type: [M-H]-
Precursor m/z: 947.17
m/z	relative intensity
946.3	100
800	100
783.7	56
765.7	8
637.7	90
619.7	28
475.4	41
