Mass spectrum: 4-Hydroxy-5-methoxy-trans-melilotoside; MS2; QIT; [M+H]+; 35%
Name: 4-Hydroxy-5-methoxy-trans-melilotoside
Class: CLASS1 Phenylpropanoid
Class: CLASS2 Phenylpropanoid glycoside
Class: CLASS3 Melilotoside
Exact mass: no data
Ion type: [M+H]+
Precursor m/z: 373
m/z	relative intensity
373	100
211	2
193	1
