Mass spectrum: Kaempferol sinapoyl tetraglucoside; MS2; QIT; [M-H]-; 40V
Name: Kaempferol sinapoyl tetraglucoside
Class: CLASS1 Flavonoid
Class: CLASS2 Flavonol
Class: CLASS3 Kaempferol glycoside
Formula: C50H60O30
Exact mass: 1140.32 
Ion type: [M-H]-
Precursor m/z: 1139
m/z	relative intensity
1121	2
977	100
785	1
