Mass spectrum: Glycitein O-di-hexoside malonylated I; MS2; QqQ; [M+H]+; 27%
Name: Glycitein O-di-hexoside malonylated I
Class: CLASS1 Flavonoid
Class: CLASS2 Isoflavone
Class: CLASS3 Genistein glycoside
Exact mass: no data
Ion type: [M+H]+
Precursor m/z: 695
m/z	relative intensity
695	100
533	100
447	100
285	100
