Mass spectrum: Syringaresinol-hexoside; MS2; Q-TOF; [M-H]-; 15->55V
Name: Syringaresinol-hexoside
Class: CLASS1 Phenylpropanoid
Class: CLASS2 Lignan
Class: CLASS3 Syringaresinol glycoside
Exact mass: 0
Ion type: [M-H]-
Precursor m/z: 579.3042
m/z	relative intensity
579.3042	10
579.1575	48
519.3212	13
417.1613	100
181.0504	27
166.0191	10
