Mass spectrum: Hispaglabridin A; MS2; QIT; [M-H]-; 35%
Name: Hispaglabridin A
Name: 1,3-Benzenediol, 4-[(3R)-3,4-dihydro-8,8-dimethyl-2H,8H-benzo[1,2-b:3,4-b']dipyran-3-yl]-2-(3-methyl-2-buten-1-yl)-
Class: CLASS1 Flavonoid
Class: CLASS2 Isoflavane
Formula: C25H28O4
Exact mass: 392.20 
Ion type: [M-H]-
Precursor m/z: 391
m/z	relative intensity
215	36
203	100
201	49
189	40
177	63
