Mass spectrum: 3-Glucose-Medicagenic acid; MS2; in source CID; [M-H]-; 70V
Name: 3-Glucose-Medicagenic acid
Class: CLASS1 Terpenoid
Class: CLASS2 Triterpenoid
Class: CLASS3 Medicagenic acid
Exact mass: no data
Ion type: [M-H]-
Precursor m/z: 663
m/z	relative intensity
663	100
