Mass spectrum: Isorhamnetin-3-arabinoside-7-rhamnoside; MS2; Q-TOF; [M-H]-; 15->55V
Name: Isorhamnetin-3-arabinoside-7-rhamnoside
Class: CLASS1 Flavonoid
Class: CLASS2 Flavonol
Class: CLASS3 Isorhamnetin glycoside
Exact mass: 0
Ion type: [M-H]-
Precursor m/z: 593.1434
m/z	relative intensity
593.1434	100
461.1068	19
460.0978	43
447.0909	23
445.0781	5
315.0493	34
314.0415	6
313.0326	60
300.0254	6
299.0189	7
298.0104	4
285.0379	6
283.0248	3
271.0221	3
270.0168	7
242.0183	3
