Mass spectrum: 3-Hydroxytanshinone IIB; MS2; QIT; [M+H]+; 40%
Name: 3-Hydroxytanshinone IIB
Name: Phenanthro[1,2-b]furan-10,11-dione, 6,7,8,9-tetrahydro-7-hydroxy-6-(hydroxymethyl)-1,6-dimethyl-, (6S)-
Class: CLASS1 Terpenoid
Class: CLASS2 Diterpenoid
Class: CLASS3 tanshinone
Formula: C19H18O5
Exact mass: 326.12 
Ion type: [M+H]+
Precursor m/z: 327
m/z	relative intensity
272	100
