Mass spectrum: Dehydroevodiamine; MS2; QqQ; [M+H]+; 30–>50%
Name: Dehydroevodiamine
Class: CLASS1 Alkaloid
Class: CLASS2 Indole
Class: CLASS3 Evodiamide
Formula: C19H15N3O1
Exact mass: 301.12 
Ion type: [M+H]+
Precursor m/z: 302
m/z	relative intensity
287	100
