Mass spectrum: 3,4-Dicaffeoylquinic acid glucoside; MS2; QIT; [M-H]-; 40%
Name: 3,4-Dicaffeoylquinic acid glucoside
Class: CLASS1 Phenylpropanoid
Class: CLASS2 Phenylpropanoid ester
Class: CLASS3 Quinic acid
Exact mass: no data
Ion type: [M-H]-
Precursor m/z: 677
m/z	relative intensity
515	100
497	3
353	5
