Mass spectrum: 4-Methylsulfinyl-n-butyl glucosinolate; MS2; Q-TOF; [M-H]-; 15->55V
Name: 4-Methylsulfinyl-n-butyl glucosinolate
Name: glucoraphanin
Class: CLASS1 Glucosinolate
Class: CLASS2 Aliphatic glucosinolate
Formula: C12H23N1O10S3
Exact mass: 437.048409
Ion type: [M-H]-
Precursor m/z: 436.0405
m/z	relative intensity
436.0405	100
372.0467	19
178.0225	12
96.9621	44
95.9541	33
79.9576	3
74.9942	13
