Mass spectrum: Guaiasylglycerol-beta-feruloyllcholine ether isomer 4'-O-hexoside; MS2; Q-TOF; [M+H]+; 15->55V
Name: Guaiasylglycerol-beta-feruloyllcholine ether isomer 4'-O-hexoside
Name: FC(5-b)G 4'-O-hexoside
Class: CLASS1 Phenylpropanoid
Class: CLASS2 Lignan
Class: CLASS3 Feruroylcholine-guaiasyl ester
Exact mass: 0
Ion type: [M+H]+
Precursor m/z: 621.2826
m/z	relative intensity
621.2826	3
620.2704	100
561.197	33
543.1841	17
531.191	3
399.1421	5
381.1341	44
369.1301	9
