Mass spectrum: (S)-Suspensaside methyl ether; MS2; QIT; [M-H]-; 45%
Name: (S)-Suspensaside methyl ether
Class: CLASS1 Phenylpropanoid
Class: CLASS2 Phenylpropanoid glycoside
Class: CLASS3 Suspensaside
Formula: C30H38O16
Exact mass: 654.22 
Ion type: [M-H]-
Precursor m/z: 653
m/z	relative intensity
653	100
621	100
487	6
