Mass spectrum: Phenethyl glucosinolate; MS2; QIT; [M-H]-; 0.8V
Name: Phenethyl glucosinolate
Name: Gluconasturtiin
Class: CLASS1 Glucosinolate
Class: CLASS2 Benzyl glucosinolate
Formula: C15H21N1O9S2
Exact mass: 423.07 
Ion type: [M-H]-
Precursor m/z: 422
m/z	relative intensity
342	5
275	13
260	9
259	100
244	15
241	31
199	7
195	7
180	36
139	5
