Mass spectrum: Hexyl-glucosinolate; MS2; QIT; [M-H]-; 30->35%
Name: Hexyl-glucosinolate
Class: CLASS1 Glucosinolate
Class: CLASS2 Aliphatic glucosinolate
Exact mass: no data
Ion type: [M-H]-
Precursor m/z: 402
m/z	relative intensity
402	100
357	100
315	100
275	100
259	100
239	100
221	100
195	100
