Mass spectrum: 4-Pentenylglucosinolate; MS2; QIT; [M-H]-; 30->35%
Name: 4-Pentenylglucosinolate
Name: Glucobrassicanapin
Class: CLASS1 Glucosinolate
Class: CLASS2 Aliphatic glucosinolate
Formula: C12H21N1O9S2
Exact mass: 387.07 
Ion type: [M-H]-
Precursor m/z: 386
m/z	relative intensity
275	100
259	100
248	100
223	100
195	100
190	100
