Mass spectrum: Ginsenoside Rc; MS2; QIT; [M-H]-; 50%
Name: Ginsenoside Rc
Name: Panaxoside Rc
Class: CLASS1 Terpenoid
Class: CLASS2 Triterpenoid
Class: CLASS3 Ginsenoside
Formula: C53H90O22
Exact mass: 1078.59 
Ion type: [M-H]-
Precursor m/z: 1079.29
m/z	relative intensity
1078.5	100
946.2	100
910.9	55
783.9	100
765.9	15
622.5	15
