Mass spectrum: Trigalloylquinic acid; MS2; QIT; [M-H]-; 15V
Name: Trigalloylquinic acid
Class: CLASS1 Other
Class: CLASS2 Other
Class: CLASS3 Other
Exact mass: no data
Ion type: [M-H]-
Precursor m/z: 647
m/z	relative intensity
495	100
477	100
325	100
