Mass spectrum: Epimedin B; MS2; QIT-FT; [M+H]+; 90V
Name: Epimedin B
Class: CLASS1 Flavonoid
Class: CLASS2 Flavonol
Class: CLASS3 Epimedin
Formula: C38H48O19
Exact mass: 808.28 
Ion type: [M+H]+
Precursor m/z: 809.28552
m/z	relative intensity
809.28626	100
531.18677	100
531.18609	100
677.24451	100
677.244	100
