Mass spectrum: Kaempferol-dihexoside-rhamnoside; MS2; Q-TOF; [M-H]-; 15->55V
Name: Kaempferol-dihexoside-rhamnoside
Class: CLASS1 Flavonoid
Class: CLASS2 Flavonol
Class: CLASS3 Kaempferol glycoside
Exact mass: 0
Ion type: [M-H]-
Precursor m/z: 755.9153
m/z	relative intensity
755.9153	4
755.2007	100
754.997	3
593.1511	84
446.0904	10
285.0486	3
284.037	12
283.0317	12
