Mass spectrum: Quercetin-3-O-b-glucosyl-7-O-a-rhamnoside; MS2; Q-TOF; [M+H]+; 15->55V
Name: Quercetin-3-O-b-glucosyl-7-O-a-rhamnoside
Class: CLASS1 Flavonoid
Class: CLASS2 Flavonol
Class: CLASS3 Quercetin glycoside
Formula: C27H30O16
Exact mass: 610.1533849
Ion type: [M+H]+
Precursor m/z: 611.1672
m/z	relative intensity
611.1672	21
449.1075	43
304.0552	3
303.0528	100
