Mass spectrum: Jacozine N-oxide; MS2; QqQ; [M+H]+; 41V
Name: Jacozine N-oxide
Class: CLASS1 Alkaloid
Class: CLASS2 Pyrrolidine
Class: CLASS3 Jacozine
Exact mass: no data
Ion type: [M+H]+
Precursor m/z: 366
m/z	relative intensity
366	100
120	100
138	100
