Mass spectrum: Pelargonodin 3-rutinoside-5-glucoside p-coumaric; MS2; QqQ; [M]+; 15->30V
Name: Pelargonodin 3-rutinoside-5-glucoside p-coumaric
Class: CLASS1 Flavonoid
Class: CLASS2 Anthocyanin
Class: CLASS3 Pelargonidin glycoside
Formula: C42H47O21Cl1
Exact mass: 887.26 
Ion type: [M]+
Precursor m/z: 887.2
m/z	relative intensity
725.2	100
433.2	100
271.2	100
