Mass spectrum: 5-Methoxy-8-hydroxypsoralen; MS2; QIT; [M+H]+; 13->37%
Name: 5-Methoxy-8-hydroxypsoralen
Class: CLASS1 Phenylpropanoid
Class: CLASS2 Coumarin
Class: CLASS3 Psoralen
Formula: C11H6O5
Exact mass: 218.02 
Ion type: [M+H]+
Precursor m/z: 233
m/z	relative intensity
233	50
218	100
