Mass spectrum: Leucine; MS2; Q-TOF; [M+H]+; 15->55V
Name: Leucine
Class: CLASS1 Amino acid
Class: CLASS2 Leucine
Formula: C6H13N1O2
Exact mass: 131.0946287
Ion type: [M+H]+
Precursor m/z: 133.9761
m/z	relative intensity
133.9761	8
132.1025	7
124.9638	6
117.9607	3
115.9651	22
99.5094	12
98.9601	4
88.0018	8
86.0963	100
69.0705	13
