Mass spectrum: Albiflorin; MS2; Q-TOF; [M-H]-; 20->80V
Name: Albiflorin
Class: CLASS1 Terpenoid
Class: CLASS2 Monoterpenoid
Class: CLASS3 Albiflorin
Formula: C23H28O11
Exact mass: 480.16 
Ion type: [M-H]-
Precursor m/z: 479
m/z	relative intensity
449	100
435	100
357	100
283	100
195	100
121	100
