Mass spectrum: Nicotinoylcholine; MS2; Q-TOF; [M+H]+; 15->55V
Name: Nicotinoylcholine
Class: CLASS1 Other
Class: CLASS2 Choline
Exact mass: 0
Ion type: [M+H]+
Precursor m/z: 209.1251
m/z	relative intensity
209.1251	23
190.9272	5
167.9261	5
150.0546	100
106.0269	68
78.0386	21
