Mass spectrum: Matairesinol; MS2; QIT; [M-H]-; 45%
Name: Matairesinol
Class: CLASS1 Phenylpropanoid
Class: CLASS2 Lignan
Class: CLASS3 Matairesinol
Formula: C20H22O6
Exact mass: 358.14 
Ion type: [M-H]-
Precursor m/z: 357
m/z	relative intensity
357	100
342	19
313	100
311	3
298	27
281	3
221	5
