Mass spectrum: 4-Malonyl-1,3,5-tricaffeoylquinic acid; MS2; QIT; [M-H]-; 40%
Name: 4-Malonyl-1,3,5-tricaffeoylquinic acid
Class: CLASS1 Phenylpropanoid
Class: CLASS2 Phenylpropanoid ester
Class: CLASS3 Quinic acid
Exact mass: no data
Ion type: [M-H]-
Precursor m/z: 763
m/z	relative intensity
745	10
719	61
677	100
601	6
557	47
539	24
515	2
511	12
497	2
395	29
377	2
