Mass spectrum: Kaempferol-pentoside; MS2; QqQ; [M-H]-; 40V
Name: Kaempferol-pentoside
Class: CLASS1 Flavonoid
Class: CLASS2 Flavonol
Class: CLASS3 Kaempferol glycoside
Exact mass: no data
Ion type: [M-H]-
Precursor m/z: 417
m/z	relative intensity
417	100
285	100
284	100
255	100
227	100
