Mass spectrum: Petunidin-3-glucoside-5-glucoside p-coumaric; MS2; QqQ; [M]+; 15->30V
Name: Petunidin-3-glucoside-5-glucoside p-coumaric
Class: CLASS1 Flavonoid
Class: CLASS2 Anthocyanin
Class: CLASS3 Petunidin glycoside
Formula: C37H39O19Cl1
Exact mass: 787.21 
Ion type: [M]+
Precursor m/z: 787.2
m/z	relative intensity
624.8	100
478.8	100
317.2	100
