Mass spectrum: Vitisin B; MS2; QqQ; [M]+; n.d.
Name: Vitisin B
Class: CLASS1 Flavonoid
Class: CLASS2 Anthocyanin
Class: CLASS3 Other
Formula: C25H25O12
Exact mass: 517.13 
Ion type: [M]+
Precursor m/z: 517
m/z	relative intensity
517	50
355	100
339	100
