Mass spectrum: 1-O-b-D-Glucopyranosyl sinapate; MS2; Q-TOF; [M-H]-; 15->55V
Name: 1-O-b-D-Glucopyranosyl sinapate
Class: CLASS1 Phenylpropanoid
Class: CLASS2 Phenylpropanoid glycoside
Class: CLASS3 Sinapoyl glycoside
Formula: C15H16O9
Exact mass: 340.0794321
Ion type: [M-H]-
Precursor m/z: 385.1098
m/z	relative intensity
385.1098	48
265.0794	3
223.0597	78
208.0348	15
205.0485	100
193.0139	5
190.0267	67
179.0731	13
175.003	25
164.0473	29
149.0229	27
147.0039	7
121.0257	7
119.0112	10
71.0162	4
59.0142	3
