Mass spectrum: p-Hydroxybenzyl glucosinolate; MS2; QIT; [M-H]-; 35
Name: p-Hydroxybenzyl glucosinolate
Name: Glucosinalbin
Class: CLASS1 Glucosinolate
Class: CLASS2 Benzyl glucosinolate
Formula: C14H19N1O10S2
Exact mass: 425.05 
Ion type: [M-H]-
Precursor m/z: 424
m/z	relative intensity
344	100
291	100
275	100
261	100
259	100
246	100
231	100
228	100
182	100
