Mass spectrum: Delphinidin 3-O-glucoside; MS2; QIT; [M]+; 45%
Name: Delphinidin 3-O-glucoside
Class: CLASS1 Flavonoid
Class: CLASS2 Anthocyanin
Class: CLASS3 Delphinidin glycoside
Formula: C21H21O12Cl1
Exact mass: 465.10 
Ion type: [M]+
Precursor m/z: 465
m/z	relative intensity
303.2	100
