Mass spectrum: Trijuganone B; MS2; QIT; [M+H]+; 40%
Name: Trijuganone B
Name: Phenanthro[1,2-b]furan-10,11-dione, 1,2,8,9-tetrahydro-1,6-dimethyl-
Class: CLASS1 Terpenoid
Class: CLASS2 Diterpenoid
Class: CLASS3 tanshinone
Formula: C18H16O3
Exact mass: 280.11 
Ion type: [M+H]+
Precursor m/z: 281
m/z	relative intensity
263	100
253	3
235	63
221	3
