Mass spectrum: Guaiasylglycerol-beta-feruloyllcholine ether; MS2; Q-TOF; [M+H]+; 15->55V
Name: Guaiasylglycerol-beta-feruloyllcholine ether
Name: FC(4-O-b)G
Class: CLASS1 Phenylpropanoid
Class: CLASS2 Lignan
Class: CLASS3 Feruroylcholine-guaiasyl ester
Exact mass: 0
Ion type: [M+H]+
Precursor m/z: 476.2265
m/z	relative intensity
476.2265	60
417.1574	13
221.0801	100
206.0549	4
177.0532	23
145.0282	21
117.0359	4
