Mass spectrum: 2-(beta-D-Glucopyranosyloxy)-3-(phenylsulfinyl)-propanoic acid; MS2; QIT; [MH]+; 45%
Name: 2-(beta-D-Glucopyranosyloxy)-3-(phenylsulfinyl)-propanoic acid
Class: CLASS1 Other
Class: CLASS2 Other
Class: CLASS3 Other
Formula: C15H20O9S1
Exact mass: 376.08 
Ion type: [MH]+
Precursor m/z: 391
m/z	relative intensity
391	4
229	100
197	1
127	3
103	20
