Mass spectrum: 3,4-Phenanthrenedione; MS2; QIT; [M+H]+; 40%
Name: 3,4-Phenanthrenedione
Name: 3,4-Phenanthrenedione
Class: CLASS1 Terpenoid
Class: CLASS2 Diterpenoid
Class: CLASS3 tanshinone
Formula: C14H8O2
Exact mass: 208.05 
Ion type: [M+H]+
Precursor m/z: 329
m/z	relative intensity
311	100
293	19
287	16
267	39
