Mass spectrum: Kaempferol-(3-hydroxy-3-methylglutaroyl) rhamnoside; MS2; QqQ; [M-H]-; 40V
Name: Kaempferol-(3-hydroxy-3-methylglutaroyl) rhamnoside
Class: CLASS1 Flavonoid
Class: CLASS2 Flavonol
Class: CLASS3 Kaempferol glycoside
Exact mass: no data
Ion type: [M-H]-
Precursor m/z: 575
m/z	relative intensity
575	100
513	100
473	100
431	100
285	100
284	100
