Mass spectrum: 4-Caffeoyl-5-feruloylquinic acids; MS2; QqQ; [M+H]+; 30eV
Name: 4-Caffeoyl-5-feruloylquinic acids
Name: Cyclohexanecarboxylic acid, 4-[[3-(3,4-dihydroxyphenyl)-1-oxo-2-propen-1-yl]oxy]-1,3-dihydroxy-5-[[3-(4-hydroxy-3-methoxyphenyl)-1-oxo-2-propen-1-yl]oxy]-, (1R,3R,4S,5R)-
Class: CLASS1 Phenylpropanoid
Class: CLASS2 Phenylpropanoid ester
Class: CLASS3 Quinic acid
Formula: C26H26N0O12
Exact mass: 530.14 
Ion type: [M+H]+
Precursor m/z: 530.7
m/z	relative intensity
176.9	100
162.8	67
144.9	25
