Mass spectrum: p-Coumaroyl-N-tryptophan; MS2; QqQ; [M-H]-; 20eV
Name: p-Coumaroyl-N-tryptophan
Class: CLASS1 Amino acid
Class: CLASS2 Tryptophan
Exact mass: 0.00 
Ion type: [M-H]-
Precursor m/z: 348.9
m/z	relative intensity
348.6	10
305.1	15
229.1	33
186	25
176	16
157	35
144.8	65
118.7	100
99.6	81
