Mass spectrum: Tamarixetin; MS2; QIT; [M+H]+; 20->60%
Name: Tamarixetin
Name: 4H-1-Benzopyran-4-one, 3,5,7-trihydroxy-2-(3-hydroxy-4-methoxyphenyl)-
Class: CLASS1 Flavonoid
Class: CLASS2 Flavonol
Class: CLASS3 Tamarixetin
Formula: C16H12O7
Exact mass: 316.06 
Ion type: [M+H]+
Precursor m/z: 317
m/z	relative intensity
317	6
302	100
299	4
288	2
289	1
285	33
274	6
271	6
261	9
275	1
233	1
259	1
201	1
177	1
165	6
153	3
153	3
163	2
