Mass spectrum: Isorhamnetin 3,4'-diglucoside; MS2; QIT; [M-H]-; 40%
Name: Isorhamnetin 3,4'-diglucoside
Name: Astragalegoside
Class: CLASS1 Flavonoid
Class: CLASS2 Flavonol
Class: CLASS3 Isorhamnetin glycoside
Formula: C28H32O17
Exact mass: 640.16 
Ion type: [M-H]-
Precursor m/z: 639.2
m/z	relative intensity
476	45
315	100
313	22
