Mass spectrum: Guaiasylglycerol-beta-feruloyl ether related metabolite; MS2; Q-TOF; [M-H]-; 15->55V
Name: Guaiasylglycerol-beta-feruloyl ether related metabolite
Name: F(4-O-b)G related metabolite#4
Class: CLASS1 Phenylpropanoid
Class: CLASS2 Lignan
Class: CLASS3 Guaiasylglycerol-feruloyl ether
Exact mass: 0
Ion type: [M-H]-
Precursor m/z: 389.1631
m/z	relative intensity
389.1631	27
389.1186	27
341.0998	54
229.8284	27
195.0646	45
193.0517	100
178.0256	36
165.0623	54
150.0297	63
149.0193	27
134.0342	81
