Mass spectrum: Asperuloside acid; MS2; Q-TOF; [M-H]-; 10->20V
Name: Asperuloside acid
Class: CLASS1 Terpenoid
Class: CLASS2 Iridoid
Class: CLASS3 Asperuloside
Formula: C18H24O12
Exact mass: 432.13 
Ion type: [M-H]-
Precursor m/z: 431.1057
m/z	relative intensity
431	20
371	5
269	5
252	10
251	60
233	5
225	10
183	10
179	12
165	95
147	20
119	40
113	45
101	100
89	45
71	55
59	20
