Mass spectrum: Malonyl ginsenoside Rb2/Rb3/Rc; MS2; QIT; [M-H]-; 50%
Name: Malonyl ginsenoside Rb2/Rb3/Rc
Class: CLASS1 Terpenoid
Class: CLASS2 Triterpenoid
Class: CLASS3 Ginsenoside
Formula: C56H92O25
Exact mass: 1164.59 
Ion type: [M-H]-
Precursor m/z: 1165.34
m/z	relative intensity
1164.3	100
1120.2	7
1072.2	13
988.5	100
970.4	26
928.3	22
910.3	22
