Mass spectrum: Anabasine; MS2; QIT; [M+H]+; 25%
Name: Anabasine
Class: CLASS1 Alkaloid
Class: CLASS2 Pyridine
Class: CLASS3 Anabasine
Formula: C10H14N2
Exact mass: 162.12 
Ion type: [M+H]+
Precursor m/z: 163
m/z	relative intensity
163	100
146	100
118	100
