Mass spectrum: Acetylhyperoside; MS2; QIT; [M-H]-; 35%
Name: Acetylhyperoside
Class: CLASS1 Flavonoid
Class: CLASS2 Flavonol
Class: CLASS3 Hyperoside
Exact mass: no data
Ion type: [M-H]-
Precursor m/z: 505.2
m/z	relative intensity
463.1	100
301.2	100
