Mass spectrum: 4-Caffeoyl-5-dimethoxycinnamoylquinic acid; MS2; QqQ; [M+H]+; 15eV
Name: 4-Caffeoyl-5-dimethoxycinnamoylquinic acid
Class: CLASS1 Phenylpropanoid
Class: CLASS2 Phenylpropanoid ester
Class: CLASS3 Quinic acid
Exact mass: 0.00 
Ion type: [M+H]+
Precursor m/z: 544.7
m/z	relative intensity
526.6	11
190.9	100
176.9	16
