Mass spectrum: Kaempferol 3-O-sinapoyl diglucoside; MS2; QIT; [M-H]-; 40V
Name: Kaempferol 3-O-sinapoyl diglucoside
Class: CLASS1 Flavonoid
Class: CLASS2 Flavonol
Class: CLASS3 Kaempferol glycoside
Formula: C38H40O20
Exact mass: 816.21 
Ion type: [M-H]-
Precursor m/z: 815
m/z	relative intensity
624	11
623	65
610	14
609	100
591	34
447	1
429	8
285	8
284	12
257	2
255	4
