Mass spectrum: N-(3,5-dichlorophenyl)-L-Glutamine; MS2; QqQ; [M+H]+; 10->40V
Name: N-(3,5-dichlorophenyl)-L-Glutamine
Class: CLASS1 Amino acid
Class: CLASS2 Glutamine
Formula: C11H12N2O3Cl2
Exact mass: 220.08 
Precursor m/z: 291
m/z	relative intensity
291	100
274	20
245.1	3
228	1
187.1	1
162	4
145.5	1
130	69
101.8	1
84.1	15
69	1
38.8	1
