Mass spectrum: Geniposidec acid; MS2; Q-TOF; [M-H]-; 10->20V
Name: Geniposidec acid
Class: CLASS1 Terpenoid
Class: CLASS2 Iridoid
Class: CLASS3 Geniposidec acid
Exact mass: no data
Ion type: [M-H]-
Precursor m/z: 374.1
m/z	relative intensity
373.1	100
211.1	100
167.1	100
149.1	100
123	100
113	100
101	100
