Mass spectrum: Quercetin O-rhamnosylhexoside; MS2; QIT; [M-H]-; 45%
Name: Quercetin O-rhamnosylhexoside
Class: CLASS1 Flavonoid
Class: CLASS2 Flavonol
Class: CLASS3 Quercetin glycoside
Exact mass: no data
Ion type: [M-H]-
Precursor m/z: 609
m/z	relative intensity
609	100
343	9
325	2
301	100
271	8
255	6
179	1
