Mass spectrum: Codeine-N-oxide; MS2; QIT; [M+H]+; 20->40V
Name: Codeine-N-oxide
Class: CLASS1 Alkaloid
Class: CLASS2 Benzylisoquinoline
Class: CLASS3 Codeine
Formula: C18H21N1O4
Exact mass: 315.15 
Ion type: [M+H]+
Precursor m/z: 316
m/z	relative intensity
316	50
299	71
298	37
280	54
254	17
239	25
229	46
162	100
74	13
60	22
