Mass spectrum: Deacetylasperuloside; MS2; Q-TOF; [M-H]-; 10->20V
Name: Deacetylasperuloside
Class: CLASS1 Terpenoid
Class: CLASS2 Iridoid
Class: CLASS3 Asperuloside
Formula: C16H20O10
Exact mass: 372.11 
Ion type: [M-H]-
Precursor m/z: 372.1
m/z	relative intensity
371.1	100
209.1	100
191	100
165.1	100
147	100
135	100
119	100
101	100
71	100
