Mass spectrum: 4'-O-Methyl glabridin; MS2; QIT; [M-H]-; 35%
Name: 4'-O-Methyl glabridin
Name: Phenol, 2-[(3R)-3,4-dihydro-8,8-dimethyl-2H,8H-benzo[1,2-b:3,4-b']dipyran-3-yl]-5-methoxy-
Class: CLASS1 Flavonoid
Class: CLASS2 Isoflavane
Formula: C21H22O4
Exact mass: 338.15 
Ion type: [M-H]-
Precursor m/z: 337
m/z	relative intensity
322	47
213	11
201	100
175	54
149	10
123	11
