Mass spectrum: Laricitrin 3-O-glucoside; MS2; QqQ; [M-H]-; n.d.
Name: Laricitrin 3-O-glucoside
Class: CLASS1 Flavonoid
Class: CLASS2 Flavonol
Class: CLASS3 Laricitrin glycoside
Formula: C22H21O13
Exact mass: 493.10 
Ion type: [M-H]-
Precursor m/z: 493
m/z	relative intensity
493	50
331	100
330	100
179	100
