Mass spectrum: Sinigrin; MS2; QIT; [M-H]-; 30->35%
Name: Sinigrin
Class: CLASS1 Glucosinolate
Class: CLASS2 Aliphatic glucosinolate
Formula: C10H17N1O9S2K1
Exact mass: 359.03 
Ion type: [M-H]-
Precursor m/z: 358
m/z	relative intensity
358	100
275	100
259	100
227	100
162	100
