Mass spectrum: Peonidin 3-glucoside; MS2; QqQ; [M]+; 15->30V
Name: Peonidin 3-glucoside
Class: CLASS1 Flavonoid
Class: CLASS2 Anthocyanin
Class: CLASS3 Peonidin glycoside
Formula: C22H23O11Cl1
Exact mass: 463.12 
Ion type: [M]+
Precursor m/z: 462.8
m/z	relative intensity
301.2	100
