Mass spectrum: Demethyl eneberberine; MS2; QIT; [M+H]+; 25V
Name: Demethyl eneberberine
Class: CLASS1 Alkaloid
Class: CLASS2 Isoquinoline
Class: CLASS3 Berberine
Formula: C19H18N1O4
Exact mass: 324.12 
Ion type: [M+H]+
Precursor m/z: 324
m/z	relative intensity
324	100
309	63
294	1
280	5
