Mass spectrum: 4,5-di-O-Caffeoylquinic acid; MS2; QqQ; [M-H]-; 50V
Name: 4,5-di-O-Caffeoylquinic acid
Class: CLASS1 Phenylpropanoid
Class: CLASS2 Phenylpropanoid ester
Class: CLASS3 Quinic acid
Formula: C25H24O12
Exact mass: 516.13 
Ion type: [M-H]-
Precursor m/z: 515
m/z	relative intensity
515	100
353	100
173	44
179	37
203	6
299	3
