Mass spectrum: Sissotrin; MS2; QIT; [M-H]-; 48%
Name: Sissotrin
Name: Biochanin A 7-O-glucoside
Class: CLASS1 Flavonoid
Class: CLASS2 Isoflavone
Class: CLASS3 Sissotrin
Formula: C22H22O10
Exact mass: 446.12 
Ion type: [M-H]-
Precursor m/z: 283
m/z	relative intensity
268	100
