Mass spectrum: Phytolaccagenic acid 3-O-glucose(1'''->2'')glucose(1''->3')arabinose; MS2; QIT; [M+H]+; 200V
Name: Phytolaccagenic acid 3-O-glucose(1'''->2'')glucose(1''->3')arabinose
Class: CLASS1 Terpenoid
Class: CLASS2 Triterpenoid
Class: CLASS3 Phytolaccagenic acid
Formula: C48H76O20
Exact mass: 972.49 
Ion type: [M+H]+
Precursor m/z: 1135
m/z	relative intensity
973	100
811	100
649	100
517	100
