Mass spectrum: Trigonelline; MS2; Q-TOF; [M+H]+; 15->55V
Name: Trigonelline
Class: CLASS1 Other
Class: CLASS2 Other
Class: CLASS3 Trigonelline
Formula: C7H7N1O2
Exact mass: 137.0476785
Ion type: [M+H]+
Precursor m/z: 138.0494
m/z	relative intensity
138.0494	100
94.0616	8
92.0439	10
78.028	5
