Mass spectrum: (+)-1-Hydroxypinoresinol-4'-O-glucoside; MS2; QIT; [M-H]-; 45%
Name: (+)-1-Hydroxypinoresinol-4'-O-glucoside
Class: CLASS1 Phenylpropanoid
Class: CLASS2 Lignan
Class: CLASS3 Pinoresinol
Exact mass: no data
Ion type: [M-H]-
Precursor m/z: 535
m/z	relative intensity
535	100
373	100
343	8
313	6
