Mass spectrum: Paeonoside; MS2; Q-TOF; [M-H]-; 20->80V
Name: Paeonoside
Class: CLASS1 Other
Class: CLASS2 Benzoic acid
Class: CLASS3 Paeonoside
Formula: C15H20O8
Exact mass: 328.12 
Ion type: [M-H]-
Precursor m/z: 327
m/z	relative intensity
165	100
309	100
291	100
207	100
