Mass spectrum: epi-5-Hydroxylarborescoside; MS2; Q-TOF; [M-H]-; 10->20V
Name: epi-5-Hydroxylarborescoside
Class: CLASS1 Terpenoid
Class: CLASS2 Iridoid
Class: CLASS3 Arborescoside
Exact mass: no data
Ion type: [M-H]-
Precursor m/z: 404.1
m/z	relative intensity
403	5
265	5
241	20
223	7
205	10
193	27
191	25
177	15
161	15
147	5
143	10
128	7
127	100
113	10
101	65
89	5
85	5
72	2
71	20
59	5
