Mass spectrum: 1b-Dehydroxy baccatin VI; MS2; in source CID; [M+H]+; 40V
Name: 1b-Dehydroxy baccatin VI
Class: CLASS1 Terpenoid
Class: CLASS2 Diterpenoid
Class: CLASS3 Baccatin
Formula: C37H46O13
Exact mass: 698.29 
Ion type: [M+H]+
Precursor m/z: 698
m/z	relative intensity
717	100
699	100
657	100
597	100
