Mass spectrum: Veratroylzygadenin; MS2; QIT; [M+H]+; 0.6V
Name: Veratroylzygadenin
Class: CLASS1 Alkaloid
Class: CLASS2 Steroid
Class: CLASS3 Zygadenin
Formula: C36H51N1O10
Exact mass: 657.35 
Ion type: [M+H]+
Precursor m/z: 658.5
m/z	relative intensity
640.4	100
659.4	35
622.5	29
476.5	5
458.4	5
