Mass spectrum: 4-Mercaptobutylglucosinolate; MS2; QIT; [M-H]-; 30->35%
Name: 4-Mercaptobutylglucosinolate
Class: CLASS1 Glucosinolate
Class: CLASS2 Aliphatic glucosinolate
Formula: C11H21N1O9S3
Exact mass: 407.04 
Ion type: [M-H]-
Precursor m/z: 406
m/z	relative intensity
406	100
326	100
291	100
275	100
259	100
242	100
227	100
210	100
195	100
