Mass spectrum: Triterpenoid hexose; MS2; Q-TOF; [M+H]+; 20V
Name: Triterpenoid hexose
Class: CLASS1 Terpenoid
Class: CLASS2 Triterpenoid
Class: CLASS3 Other
Formula: C36H58O11
Exact mass: 666.40 
Ion type: [M+H]+
Precursor m/z: 666.3979
m/z	relative intensity
667.408	100
689.3909	100
649.398	100
631.3867	100
487.3438	100
505.3535	100
