Mass spectrum: Apiopaeonoside; MS2; Q-TOF; [M-H]-; 20->80V
Name: Apiopaeonoside
Class: CLASS1 Other
Class: CLASS2 Benzoic acid
Class: CLASS3 Apiopaeonoside
Formula: C20H28O12
Exact mass: 460.16 
Ion type: [M-H]-
Precursor m/z: 459
m/z	relative intensity
293	100
165	100
