Mass spectrum: Pilosinine; MS2; LIT; [M+H]+; 15->30V
Name: Pilosinine
Class: CLASS1 Alkaloid
Class: CLASS2 Imidazole
Class: CLASS3 Pilosinine
Formula: C9H12N2O2
Exact mass: 180.09 
Ion type: [M+H]+
Precursor m/z: 181.0942
m/z	relative intensity
181	100
163	15
135	17
121	7
96	11
95	28
