Mass spectrum: 3b,4b,23-Trihydroxy-24,30-dinorolean-12,20 (29)-dien-28-oic acid; MS2; Q-TOF; [M-H]-; 20->80V
Name: 3b,4b,23-Trihydroxy-24,30-dinorolean-12,20 (29)-dien-28-oic acid
Class: CLASS1 Other
Class: CLASS2 Other
Class: CLASS3 Other
Exact mass: no data
Ion type: [M-H]-
Precursor m/z: 457
m/z	relative intensity
311	100
232	100
161	100
