Mass spectrum: Coumaric acid hexose; MS2; Q-TOF; [M+H]+; 20V
Name: Coumaric acid hexose
Class: CLASS1 Phenylpropanoid
Class: CLASS2 Phenylpropanoid glycoside
Class: CLASS3 Coumaroyl glycoside
Formula: C15H18O8
Exact mass: 326.10 
Ion type: [M+H]+
Precursor m/z: 326.1002
m/z	relative intensity
327.1073	100
349.0902	100
165.0545	100
147.0436	100
