Mass spectrum: Sinapic acid; MS2; QIT; [M-H]-; 40V
Name: Sinapic acid
Class: CLASS1 Phenylpropanoid
Class: CLASS2 Phenylpropanoid monomer
Class: CLASS3 Sinapic acid
Formula: C11H12O5
Exact mass: 224.07 
Ion type: [M-H]-
Precursor m/z: 223
m/z	relative intensity
209	9
208	100
179	41
164	34
