Mass spectrum: p-Coumaroyl-N-tyrosine; MS2; QqQ; [M-H]-; 20eV
Name: p-Coumaroyl-N-tyrosine
Class: CLASS1 Amino acid
Class: CLASS2 Tyrosine
Exact mass: 0.00 
Ion type: [M-H]-
Precursor m/z: 325.8
m/z	relative intensity
325.8	39
282	100
262.3	17
206.1	8
175.9	16
173.8	11
162.9	20
162	31
146.8	39
144.8	56
133.9	91
118.7	82
106.8	27
99.3	13
