Mass spectrum: 7-epi-Cephalomannine; MS2; in source CID; [M-H]-; 40V
Name: 7-epi-Cephalomannine
Class: CLASS1 Terpenoid
Class: CLASS2 Diterpenoid
Class: CLASS3 Cephalomannine
Formula: C45H53N1O14
Exact mass: 831.35 
Ion type: [M-H]-
Precursor m/z: 831
m/z	relative intensity
876	100
830	100
678	100
525	100
262	100
