Mass spectrum: (R)-Suspensaside; MS2; QIT; [M-H]-; 45%
Name: (R)-Suspensaside
Class: CLASS1 Phenylpropanoid
Class: CLASS2 Phenylpropanoid glycoside
Class: CLASS3 Suspensaside
Formula: C29H36O16
Exact mass: 640.20 
Ion type: [M-H]-
Precursor m/z: 639
m/z	relative intensity
639	100
621	100
530	10
487	5
469	2
459	2
441	1
327	1
