Mass spectrum: Ginsenoside Rg1; MS2; QIT; [M-H]-; 50%
Name: Ginsenoside Rg1
Name: Sanchinoside Rg1
Name: Sanchinoside C1
Class: CLASS1 Terpenoid
Class: CLASS2 Triterpenoid
Class: CLASS3 Ginsenoside
Formula: C42H72O14
Exact mass: 800.49 
Ion type: [M-H]-
Precursor m/z: 801.03
m/z	relative intensity
800.1	100
637.5	100
620.6	3
475.6	6
