Mass spectrum: beta-Methoxylforsythoside E; MS2; QIT; [M-H]-; 45%
Name: beta-Methoxylforsythoside E
Class: CLASS1 Phenylpropanoid
Class: CLASS2 Phenylpropanoid glycoside
Class: CLASS3 Ferruginoside
Exact mass: no data
Ion type: [M-H]-
Precursor m/z: 491
m/z	relative intensity
491	100
459	100
441	1
325	30
265	4
235	2
163	8
151	2
