Mass spectrum: Theobromine; MS2; QqQ; [M+H]+; 30eV
Name: Theobromine
Name: 1H-Purine-2,6-dione, 3,7-dihydro-3,7-dimethyl-
Class: CLASS1 Alkaloid
Class: CLASS2 Xanthine
Class: CLASS3 Theobromine
Formula: C7H8N4O2
Exact mass: 180.06 
Ion type: [M+H]+
Precursor m/z: 180.8
m/z	relative intensity
181	16
137.7	12
121.9	21
107.8	26
82.7	13
68.5	42
66.5	100
