Mass spectrum: Quercetin-3-O-glucoside; MS2; QqQ; [M+H]+; 24->30V
Name: Quercetin-3-O-glucoside
Class: CLASS1 Flavonoid
Class: CLASS2 Flavonol
Class: CLASS3 Quercetin glycoside
Formula: C21H20O12
Exact mass: 464.10 
Ion type: [M+H]+
Precursor m/z: 465
m/z	relative intensity
465	100
303	100
229	100
165	100
153	100
137	100
