Mass spectrum: Galloyl methyl gallate; MS2; Q-TOF; [M-H]-; 20->80V
Name: Galloyl methyl gallate
Class: CLASS1 Phenylpropanoid
Class: CLASS2 Phenylpropanoid monomer
Class: CLASS3 Gallic acid
Exact mass: no data
Ion type: [M-H]-
Precursor m/z: 335
m/z	relative intensity
183	100
169	100
124	100
95	100
