Mass spectrum: Oxomatairesinol; MS2; in source CID; [M-H]-; 40V
Name: Oxomatairesinol
Class: CLASS1 Phenylpropanoid
Class: CLASS2 Lignan
Class: CLASS3 Oxomatairesinol
Formula: C20H20O7
Exact mass: 372.12 
Ion type: [M-H]-
Precursor m/z: 372
m/z	relative intensity
371	100
