Mass spectrum: Cyanoside I; MS2; QIT; [M+Na]+; 0.6–>1.0V
Name: Cyanoside I
Class: CLASS1 Other
Class: CLASS2 Other
Class: CLASS3 Other
Formula: C48H74O20
Exact mass: 970.48 
Ion type: [M+Na]+
Precursor m/z: 993
m/z	relative intensity
947	100
329	100
