Mass spectrum: Cyanidin-3-arabinoside; MS2; QqQ; [M-2H]2-; 40V
Name: Cyanidin-3-arabinoside
Class: CLASS1 Flavonoid
Class: CLASS2 Anthocyanin
Class: CLASS3 Cyanidin glycoside
Formula: C20H19O10Cl1
Exact mass: 419.10 
Ion type: [M-2H]2-
Precursor m/z: 417
m/z	relative intensity
417	100
