Mass spectrum: 1-Methoxy-3-Indolylmethyl glucosinolate; MS2; QIT; [M-H]-; 0.8V
Name: 1-Methoxy-3-Indolylmethyl glucosinolate
Name: Neoglucobrassicin
Class: CLASS1 Glucosinolate
Class: CLASS2 Indole glucosinolate
Formula: C17H22N2O10S2
Exact mass: 478.07 
Ion type: [M-H]-
Precursor m/z: 477
m/z	relative intensity
446	100
429	4
275	3
259	5
241	4
235	2
205	4
195	1
153	3
129	3
