Mass spectrum: Cyanidin 3-sambubioside-5-glucoside; MS2; QIT; [M]+; 25.4V
Name: Cyanidin 3-sambubioside-5-glucoside
Class: CLASS1 Flavonoid
Class: CLASS2 Anthocyanin
Class: CLASS3 Cyanidin glycoside
Formula: C32H39O20Cl1
Exact mass: 743.20 
Ion type: [M]+
Precursor m/z: 743
m/z	relative intensity
743	100
581	100
449	100
287	100
