Mass spectrum: Kaempferol-O,C-dipentoside; MS2; QIT; [M+H]+; 35%
Name: Kaempferol-O,C-dipentoside
Class: CLASS1 Flavonoid
Class: CLASS2 Flavonol
Class: CLASS3 Kaempferol glycoside
Exact mass: no data
Ion type: [M+H]+
Precursor m/z: 551
m/z	relative intensity
419	100
401	100
