Mass spectrum: Suffruticoside A; MS2; Q-TOF; [M-H]-; 20->80V
Name: Suffruticoside A
Class: CLASS1 Other
Class: CLASS2 Benzoic acid
Class: CLASS3 Benzoyl glycoside
Formula: C27H32O16
Exact mass: 612.17 
Ion type: [M-H]-
Precursor m/z: 611
m/z	relative intensity
445	100
283	100
169	100
165	100
343	100
301	100
