Mass spectrum: Galetin-3-O-glucuronide; MS2; QIT; [M-H]-; 40%
Name: Galetin-3-O-glucuronide
Class: CLASS1 Other
Class: CLASS2 Other
Class: CLASS3 Other
Exact mass: no data
Ion type: [M-H]-
Precursor m/z: 477
m/z	relative intensity
301	100
233	13
191	4
149	2
