Mass spectrum: 8-Methylthio-n-octyl glucosinolate; MS2; Q-TOF; [M-H]-; 15->55V
Name: 8-Methylthio-n-octyl glucosinolate
Class: CLASS1 Glucosinolate
Class: CLASS2 Aliphatic glucosinolate
Formula: C16H31N1O9S3
Exact mass: 477.1160946
Ion type: [M-H]-
Precursor m/z: 476.1096
m/z	relative intensity
476.1096	100
96.9623	30
95.9545	21
79.9608	4
74.9945	7
