Mass spectrum: Tanshinone VI; MS2; QIT; [M+H]+; 40%
Name: Tanshinone VI
Name: 3,4-Phenanthrenedione, 1-hydroxy-2-(2-hydroxy-1-methylethyl)-8-methyl-
Class: CLASS1 Terpenoid
Class: CLASS2 Diterpenoid
Class: CLASS3 tanshinone
Formula: C18H16O4
Exact mass: 296.10 
Ion type: [M+H]+
Precursor m/z: 297
m/z	relative intensity
279	100
269	22
261	13
255	11
251	49
