Mass spectrum: Dimethoxycinnamoyl hexose; MS2; QqQ; [M-H]-; 40eV
Name: Dimethoxycinnamoyl hexose
Class: CLASS1 Phenylpropanoid
Class: CLASS2 Phenylpropanoid glycoside
Exact mass: 0.00 
Ion type: [M-H]-
Precursor m/z: 351
m/z	relative intensity
351.1	100
