Mass spectrum: Pseudohypericin; MS2; QIT; [M-H]-; n.d.
Name: Pseudohypericin
Class: CLASS1 Other
Class: CLASS2 Phenol
Class: CLASS3 Other
Formula: C30H16O9
Exact mass: 520.08 
Ion type: [M-H]-
Precursor m/z: 519
m/z	relative intensity
503	100
487	100
459	100
443	100
431	100
415	100
405	100
388	100
