Mass spectrum: Pentagalloyl glucose; MS2; Q-TOF; [M-H]-; 20->80V
Name: Pentagalloyl glucose
Class: CLASS1 Tannin
Class: CLASS2 Gallotannin
Class: CLASS3 Galloyl glycoside
Formula: C41H32O26
Exact mass: 940.12 
Ion type: [M-H]-
Precursor m/z: 939
m/z	relative intensity
787	100
635	100
465	100
301	100
275	100
169	100
