Mass spectrum: Erigoster B; MS2; QIT; [M-H]-; 40%
Name: Erigoster B
Class: CLASS1 Phenylpropanoid
Class: CLASS2 Phenylpropanoid ester
Class: CLASS3 Erigoster
Formula: C26H24O13
Exact mass: 544.12 
Ion type: [M-H]-
Precursor m/z: 543
m/z	relative intensity
543	33
407	4
381	100
363	10
319	12
301	3
283	6
221	11
203	3
179	10
