Mass spectrum: Pinoresinol diglucoside; MS2; QIT; [M-H]-; 45%
Name: Pinoresinol diglucoside
Class: CLASS1 Phenylpropanoid
Class: CLASS2 Lignan
Class: CLASS3 Pinoresinol glycoside
Formula: C32H42O16
Exact mass: 682.25 
Ion type: [M-H]-
Precursor m/z: 681
m/z	relative intensity
681	100
519	100
357	20
