Mass spectrum: Dediacetylpro A; MS2; QIT; [M+H]+; 0.6V
Name: Dediacetylpro A
Class: CLASS1 Other
Class: CLASS2 Other
Class: CLASS3 Other
Exact mass: no data
Ion type: [M+H]+
Precursor m/z: 752.6
m/z	relative intensity
734.5	100
616.4	100
514.3	100
478.3	100
436.3	100
418.3	100
