Mass spectrum: 4-Hexosyloxybenzoylcholine; MS2; Q-TOF; [M+H]+; 15->55V
Name: 4-Hexosyloxybenzoylcholine
Class: CLASS1 Phenylpropanoid
Class: CLASS2 Phenylpropanoid ester
Class: CLASS3 Choline
Exact mass: 0
Ion type: [M+H]+
Precursor m/z: 386.1739
m/z	relative intensity
386.1739	34
344.8119	7
260.8052	7
165.0524	100
121.0302	26
