Mass spectrum: Phenylalanine; MS2; Q-TOF; [M+H]+; 15->55V
Name: Phenylalanine
Class: CLASS1 Amino acid
Class: CLASS2 Phenylalanine
Formula: C9H11N1O2
Exact mass: 165.0789786
Ion type: [M+H]+
Precursor m/z: 166.0868
m/z	relative intensity
166.0868	10
120.0779	100
103.0508	23
93.0656	3
91.0488	3
77.031	7
