Mass spectrum: 3-Hydroxymethyl-4-(3-methyl-3H-imidazol-4-yl)1-phenyl-butan-1-one; MS2; LIT; [M+H]+; 15->30V
Name: 3-Hydroxymethyl-4-(3-methyl-3H-imidazol-4-yl)1-phenyl-butan-1-one
Class: CLASS1 Other
Class: CLASS2 Other
Class: CLASS3 Other
Formula: C15H18N2O2
Exact mass: 258.14 
Ion type: [M+H]+
Precursor m/z: 259.1397
m/z	relative intensity
259	100
241	13
145	27
138	15
121	23
105	65
95	36
