Mass spectrum: Proanthocyanidin B; MS2; QqQ; [M-H]-; 40V
Name: Proanthocyanidin B
Class: CLASS1 Tannin
Class: CLASS2 Proanthocyanidin
Formula: C31H28O12
Exact mass: 592.16 
Ion type: [M-H]-
Precursor m/z: 577
m/z	relative intensity
577	100
