Mass spectrum: Kaempferol 3-O-(hexoxyl)robinoside-7-O-rhamnoside; MS2; QIT; [M-H]-; 0.3->2V
Name: Kaempferol 3-O-(hexoxyl)robinoside-7-O-rhamnoside
Class: CLASS1 Flavonoid
Class: CLASS2 Flavonol
Class: CLASS3 Kaempferol glycoside
Exact mass: no data
Ion type: [M-H]-
Precursor m/z: 901
m/z	relative intensity
755	100
