Mass spectrum: Hyperforin; MS2; QIT; [M-H]-; n.d.
Name: Hyperforin
Class: CLASS1 Other
Class: CLASS2 Phenol
Class: CLASS3 Phloroglucinol
Formula: C35H52O4
Exact mass: 536.39 
Ion type: [M-H]-
Precursor m/z: 535
m/z	relative intensity
466	100
451	100
423	100
407	100
397	100
395	100
383	100
379	100
353	100
351	100
315	100
313	100
259	100
