Mass spectrum: Glaucoside C; MS2; QIT; [M+Na]+; 0.6–>1.0V
Name: Glaucoside C
Class: CLASS1 Other
Class: CLASS2 Other
Class: CLASS3 Glaucoside
Formula: C41H62O15
Exact mass: 794.41 
Ion type: [M+Na]+
Precursor m/z: 817
m/z	relative intensity
771	100
673	100
627	100
441	100
297	100
