Mass spectrum: Dimethoxycinnamic acid; MS2; QqQ; [M-H]-; 40eV
Name: Dimethoxycinnamic acid
Name: 2-Propenoic acid, 3-(3,4-dimethoxyphenyl)-
Class: CLASS1 Phenylpropanoid
Class: CLASS2 Phenylpropanoid monomer
Class: CLASS3 dimethoxycinnamic acid
Formula: C11H12N0O4
Exact mass: 208.07 
Ion type: [M-H]-
Precursor m/z: 206.9
m/z	relative intensity
206.7	50
147.3	42
132.9	46
126.5	32
103.1	100
102	98
