Mass spectrum: Myricetin 3-glucoside; MS2; QIT; [M+H]+; n.d.
Name: Myricetin 3-glucoside
Class: CLASS1 Flavonoid
Class: CLASS2 Flavonol
Class: CLASS3 Myricetin glycoside
Formula: C21H20O13
Exact mass: 480.09 
Ion type: [M+H]+
Precursor m/z: 481
m/z	relative intensity
319	100
