Mass spectrum: Caffeoyl di-coumaroyl spermidine; MS2; Q-TOF; [M+H]+; 20V
Name: Caffeoyl di-coumaroyl spermidine
Class: CLASS1 Alkaloid
Class: CLASS2 Polyamine
Class: CLASS3 Spermidine
Formula: C34H37N3O7
Exact mass: 599.26 
Ion type: [M+H]+
Precursor m/z: 599.2632
m/z	relative intensity
600.2705	100
438.2392	100
292.2023	100
147.0448	100
454.2359	100
420.2293	100
204.1012	100
