Mass spectrum: 2,17-Bidecarboxy-isobetanin; MS2; QIT; [M+H]+; 25->30%
Name: 2,17-Bidecarboxy-isobetanin
Class: CLASS1 Alkaloid
Class: CLASS2 Betalain
Class: CLASS3 Isobetanin
Formula: C22H26N2O9
Exact mass: 462.16 
Ion type: [M+H]+
Precursor m/z: 463
m/z	relative intensity
463	100
301	100
257	6
