Mass spectrum: Phytol,mixture of isomers; MS2; Q-Tof; [M+H]+
Name: Phytol,mixture of isomers
Name: 3,7,11,15-Tetramethyl-2-hexadecen-1-ol
Name: (E,7R,11R)-3,7,11,15-tetramethylhexadec-2-en-1-ol
Class: CLASS1 Terpenoid
Class: CLASS2 Diterpenoid
Class: CLASS3 Phytol
Formula: C20H40O
Exact mass: 296.53
SMILES: CC(C)CCCC(C)CCCC(C)CCCC(=CCO)C
InChI: InChI=1/C20H40O/c1-17(2)9-6-10-18(3)11-7-12-19(4)13-8-14-20(5)15-16-21/h15,17-19,21H,6-14,16H2,1-5H3/b20-15+/t18-,19-/m1/s1
Instrument: Q-Tof Premier, Waters
Ion type: [M+H]+
Precursor m/z: 297.3157
m/z	relative intensity
73.0474	249
178.9634	35
179.0002	41
191.0007	146
192.9803	106
205.0171	83
207.0312	115
248.988	350
265.0194	304
276.9309	49
281.0495	999
297.0785	39
299.0614	31
