Mass spectrum: DL-alpha,epsilon-Diaminopimelic acid; MS2; Q-Tof; [M+H]+
Name: DL-alpha,epsilon-Diaminopimelic acid
Name: DL-Dapm
Name: M-DAP
Name: DL-2,6-Diaminoheptanedioic acid
Name: DL-2,6-Diaminopimelate
Name: 2,6-diaminoheptanedioic acid
Class: CLASS1 Other
Class: CLASS2 Carboxylic acid
Class: CLASS3 Pimelic acid
Formula: C7H14N2O4
Exact mass: 190.2
SMILES: C(CC(C(=O)O)N)CC(C(=O)O)N
InChI: InChI=1/C7H14N2O4/c8-4(6(10)11)2-1-3-5(9)7(12)13/h4-5H,1-3,8-9H2,(H,10,11)(H,12,13)/f/h10,12H
Instrument: Q-Tof Premier, Waters
Ion type: [M+H]+
Precursor m/z: 191.10315
m/z	relative intensity
128.0706	85
191.1031	999
