Mass spectrum: Sodium 4-hydroxy-benzoate; MS2; Q-Tof; [M+H]+
Name: Sodium 4-hydroxy-benzoate
Name: p-Hydroxybenzoic acid sodium salt
Name: 4-Hydroxybenzoic acid sodium salt
Name: Hydroxybenzenecarboxylic acid
Name: 4-hydroxybenzoic acid
Class: CLASS1 Other
Class: CLASS2 Benzoic acid
Class: CLASS3 Hydroxybenzoic acid
Formula: C7H6O3
Exact mass: 138.12
SMILES: C1=CC(=CC=C1C(=O)O)O
InChI: InChI=1/C7H6O3/c8-6-3-1-5(2-4-6)7(9)10/h1-4,8H,(H,9,10)/f/h9H
Instrument: Q-Tof Premier, Waters
Ion type: [M+H]+
Precursor m/z: 139.03949
m/z	relative intensity
95.0503	999
121.0293	923
139.0395	509
