Mass spectrum: Isorhamnetin-3-Galactoside-6-Rhamnoside; MS2; Q-Tof; [M+H]+
Name: Isorhamnetin-3-Galactoside-6''-Rhamnoside
Name: Isor-3-Gal-6''-Rha
Class: CLASS1 Flavonoid
Class: CLASS2 Flavonol
Class: CLASS3 Isorhamnetin glycoside
Formula: C28H32O16
Exact mass: 624.56
SMILES: c
InChI: 1/C4H9NO2/c5-3-1-2-4(6)7/h1-3,5H2,(H,6,7)/f/h6H
Instrument: Q-Tof Premier, Waters
Ion type: [M+H]+
Precursor m/z: 625.17685
m/z	relative intensity
71.0506	42
85.0293	82
129.0547	33
285.0393	23
302.0428	66
317.0648	999
318.0712	38
479.1196	94
625.1769	48
