Mass spectrum: Kaempferol-3-Galactoside-6-Rhamnoside-3-Rhamnoside; MS2; Q-Tof; [M+H]+
Name: Kaempferol-3-Galactoside-6''-Rhamnoside-3'''-Rhamnoside
Name: Kaem-3-Gal-6''-Rha-3''-Rha
Class: CLASS1 Flavonoid
Class: CLASS2 Flavonol
Class: CLASS3 Kaempferol glycoside
Formula: C33H40O19
Exact mass: 740.68
SMILES: c
InChI: 1/C4H9NO2/c5-3-1-2-4(6)7/h1-3,5H2,(H,6,7)/f/h6H
Instrument: Q-Tof Premier, Waters
Ion type: [M+H]+
Precursor m/z: 741.22419
m/z	relative intensity
71.0514	36
85.0298	77
117.0557	20
129.0558	45
163.0607	40
287.056	999
288.0597	45
449.1116	117
595.1708	43
741.2242	88
