Mass spectrum: Caffeine,Anhydrous; MS2; Q-Tof; [M+H]+
Name: Caffeine,Anhydrous
Name: 1,3,7-Trimethylxanthine
Name: 1,3,7-Trimethyl-2,6-dioxopurine
Name: Methyltheobromine
Name: Guaranine
Name: 1,3,7-trimethylpurine-2,6-dione
Class: CLASS1 Alkaloid
Class: CLASS2 Xanthine
Class: CLASS3 Caffeine
Formula: C8H10N4O2
Exact mass: 194.19
SMILES: CN1C=NC2=C1C(=O)N(C(=O)N2C)C
InChI: InChI=1/C8H10N4O2/c1-10-4-9-6-5(10)7(13)12(3)8(14)11(6)2/h4H,1-3H3
Instrument: Q-Tof Premier, Waters
Ion type: [M+H]+
Precursor m/z: 195.08817
m/z	relative intensity
138.0632	25
195.0815	999
