Mass spectrum: kaempferol-3-O-rutinoside; MS2; Q-Tof; [M+H]+
Name: kaempferol-3-O-rutinoside
Name: Kaem-3-Glc-6pp-Rha
Name: Nicotiflorin
Name: kaempferol-3-rhamnoglucoside  
Name: 5,7-dihydroxy-2-(4-hydroxyphenyl)-3-[(2S,3R,4S,5S,6R)-3,4,5-trihydroxy-6-[[(2R,3R,4R,5R,6S)-3,4,5-trihydroxy-6-methyloxan-2-yl]oxymethyl]oxan-2-yl]oxychromen-4-one
Class: CLASS1 Flavonoid
Class: CLASS2 Flavonol
Class: CLASS3 Kaempferol glycoside
Formula: C27H30O15
Exact mass: 594.53
SMILES: CC1C(C(C(C(O1)OCC2C(C(C(C(O2)OC3=C(OC4=CC(=CC(=C4C3=O)O)O)C5=CC=C(C=C5)O)O)O)O)O)O)O
InChI: InChI=1/C27H30O15/c1-9-17(31)20(34)22(36)26(39-9)38-8-15-18(32)21(35)23(37)27(41-15)42-25-19(33)16-13(30)6-12(29)7-14(16)40-24(25)10-2-4-11(28)5-3-10/h2-7,9,15,17-18,20-23,26-32,34-37H,8H2,1H3/t9-,15+,17-,18+,20+,21-,22+,23+,26+,27-/m0/s1
Instrument: Q-Tof Premier, Waters
Ion type: [M+H]+
Precursor m/z: 595.16626
m/z	relative intensity
71.0506	47
85.0293	92
129.0554	31
153.0191	12
165.0204	11
287.0551	999
288.0587	12
449.1075	84
595.1663	39
