Mass spectrum: Tyramine; MS2; Q-Tof; [M+H]+
Name: Tyramine
Name: 4-Hydroxyphenethylamine
Name: Uteramine
Name: 4-Hydroxy-beta-phenylethylamine
Name: 2-(4-Hydroxyphenyl)ethylamine
Name: 4-(2-Aminoethyl)phenol
Name: Systogene
Name: Tyrosamine
Name: 4-(2-aminoethyl)phenol
Class: CLASS1 Other
Class: CLASS2 Other
Class: CLASS3 Tyramine
Formula: C8H11NO
Exact mass: 137.18
SMILES: C1=CC(=CC=C1CCN)O
InChI: InChI=1/C8H11NO/c9-6-5-7-1-3-8(10)4-2-7/h1-4,10H,5-6,9H2
Instrument: Q-Tof Premier, Waters
Ion type: [M+H]+
Precursor m/z: 138.09186
m/z	relative intensity
77.0385	254
91.0542	166
93.0698	162
103.0541	198
121.0633	999
138.0919	15
