Mass spectrum: D-(+)-Fucose; MS2; Q-Tof; [M+H]+
Name: D-(+)-Fucose
Name: Fuc
Name: D-Fucopyranose
Name: 6-Deoxygalactose
Name: Rhodeose
Name: D-Galactomethylose
Name: 6-Deoxy-D-galactopyranose
Name: (3R,4S,5R,6R)-6-methyloxane-2,3,4,5-tetrol
Class: CLASS1 Other
Class: CLASS2 Sugar
Class: CLASS3 Monosaccharide
Formula: C6H12O5
Exact mass: 164.16
SMILES: CC1C(C(C(C(O1)O)O)O)O
InChI: InChI=1/C6H12O5/c1-2-3(7)4(8)5(9)6(10)11-2/h2-10H,1H3/t2-,3+,4+,5-,6?/m1/s1
Instrument: Q-Tof Premier, Waters
Ion type: [M+H]+
Precursor m/z: 165.07627
m/z	relative intensity
75.0483	778
133.0549	519
134.0584	999
164.0685	880
