Mass spectrum: trans-2-Hexenal; MS2; Q-Tof; [M+H]+
Name: trans-2-Hexenal
Name: trans-2-Hexen-1-al
Name: trans-2-Propylacrolein
Name: trans-2-Hexenyl aldehyde
Name: (E)-hex-2-enal
Class: CLASS1 Other
Class: CLASS2 Alkane
Formula: C6H10O
Exact mass: 98.14
SMILES: CCCC=CC=O
InChI: InChI=1/C6H10O/c1-2-3-4-5-6-7/h4-6H,2-3H2,1H3/b5-4+
Instrument: Q-Tof Premier, Waters
Ion type: [M+H]+
Precursor m/z: 99.08096
m/z	relative intensity
81.0533	411
99.081	999
