Mass spectrum: Quisqualic acid; MS2; Q-Tof; [M+H]+
Name: Quisqualic acid
Name: Quisqualate
Name: 3-(3,5-Dioxo-1,2,4-oxadiazolidin-2-yl)-L-alanine
Name: L-(+)-a-Amino-3,5-dioxo-1,2,4-oxadiazolidine-2-propanoic Acid
Name: (2S)-2-amino-3-(3,5-dioxo-1,2,4-oxadiazolidin-2-yl)propanoic acid
Class: CLASS1 Amino acid
Class: CLASS2 Quisqualic acid
Formula: C5H7N3O5
Exact mass: 189.13
SMILES: C(C(C(=O)O)N)N1C(=O)NC(=O)O1
InChI: InChI=1/C5H7N3O5/c6-2(3(9)10)1-8-4(11)7-5(12)13-8/h2H,1,6H2,(H,9,10)(H,7,11,12)/t2-/m0/s1/f/h7,9H
Instrument: Q-Tof Premier, Waters
Ion type: [M+H]+
Precursor m/z: 190.04637
m/z	relative intensity
57.0458	437
133.0176	362
144.0412	999
149.0433	403
151.0212	162
190.0464	814
