Mass spectrum: alpha-Aminoisobutyric acid2-Aminoisobutyric acid; MS2; Q-Tof; [M+H]+
Name: 2-Aminoisobutyric acid
Name: Aib
Name: alpha-Aminoisobutyric acid
Name: 2-Methylalanine
Name: alpha,alpha-Dimethylglycine
Name: 2-Amino-2-methylpropanoate
Name: 2-amino-2-methylpropanoic acid
Class: CLASS1 Amino acid
Class: CLASS2 Alanine
Formula: C4H9NO2
Exact mass: 103.12
SMILES: CC(C)(C(=O)O)N
InChI: InChI=1/C4H9NO2/c1-4(2,5)3(6)7/h5H2,1-2H3,(H,6,7)/f/h6H
Instrument: Q-Tof Premier, Waters
Ion type: [M+H]+
Precursor m/z: 104.07113
m/z	relative intensity
58.0656	999
59.0503	100
87.0447	60
99.5117	24
104.0711	710
