Mass spectrum: 3-Indoleacetic acid; MS2; Q-Tof; [M+H]+
Name: 3-Indoleacetic acid
Name: IAA
Name: 3-IAA
Name: Indoleacetate
Name: Indole-3-acetic acid
Name: Heteroauxin
Name: Rhizopin
Name: omega-Skatole carboxylic acid
Name: Rhizopon A
Name: 2-(1H-indol-3-yl)acetic acid
Class: CLASS1 Alkaloid
Class: CLASS2 Indole
Class: CLASS3 Indole
Formula: C10H9NO2
Exact mass: 175.18
SMILES: C1=CC=C2C(=C1)C(=CN2)CC(=O)O
InChI: InChI=1/C10H9NO2/c12-10(13)5-7-6-11-9-4-2-1-3-8(7)9/h1-4,6,11H,5H2,(H,12,13)/f/h12H
Instrument: Q-Tof Premier, Waters
Ion type: [M+H]+
Precursor m/z: 176.07113
m/z	relative intensity
130.0654	139
176.0318	31
176.0711	999
