Mass spectrum: 5-Methylcytosine hydrochloride; MS2; Q-Tof; [M+H]+
Name: 5-Methylcytosine hydrochloride
Name: 4-Amino-2-hydroxy-5-methylpyrimidine Hydrochloride
Name: 4-amino-5-methyl-3H-pyrimidin-2-one
Class: CLASS1 Other
Class: CLASS2 Other
Class: CLASS3 Cytosine
Formula: C5H7N3O
Exact mass: 125.12
SMILES: CC1=C(NC(=O)N=C1)N
InChI: InChI=1/C5H7N3O/c1-3-2-7-5(9)8-4(3)6/h2H,1H3,(H3,6,7,8,9)/f/h8H,6H2
Instrument: Q-Tof Premier, Waters
Ion type: [M+H]+
Precursor m/z: 126.06671
m/z	relative intensity
83.057	160
109.0347	123
126.0643	999
