Mass spectrum: Isorhamnetin-3-Glucoside-4'-Glucoside; MS2; Q-Tof; [M+H]+
Name: Isorhamnetin-3-Glucoside-4'-Glucoside
Name: Isor-3-Glc-4'-Glc
Name: Isorhamnetin 3,4'-diglucoside
Name: Dactylin
Name: Dactilin
Class: CLASS1 Flavonoid
Class: CLASS2 Flavonol
Class: CLASS3 Isorhamnetin glycoside
Formula: C28H32O16
Exact mass: 640.54
SMILES: c
InChI: 1/C4H9NO2/c5-3-1-2-4(6)7/h1-3,5H2,(H,6,7)/f/h6H
Instrument: Q-Tof Premier, Waters
Ion type: [M+H]+
Precursor m/z: 625.17685
m/z	relative intensity
71.0509	28
85.0277	84
129.0533	32
273.0363	20
274.0451	21
301.0293	87
302.039	70
317.063	999
318.0657	38
479.1152	102
625.1769	47
