Mass spectrum: N,N-Dimethylformamide(DMF); MS2; Q-Tof; [M+H]+
Name: N,N-Dimethylformamide
Name: DMF
Name: DMFA
Name: N,N-Dimethylmethanamide
Name: Formyldimethylamine
Name: Formic acid dimethylamide
Name: N,N-dimethylformamide
Class: CLASS1 Other
Class: CLASS2 Other
Class: CLASS3 Dimethylformamide
Formula: C3H7NO
Exact mass: 73.09
SMILES: CN(C)C=O
InChI: InChI=1/C3H7NO/c1-4(2)3-5/h3H,1-2H3
Instrument: Q-Tof Premier, Waters
Ion type: [M+H]+
Precursor m/z: 74.06056
m/z	relative intensity
74.0014	24
74.0606	999
