Mass spectrum: Isoguvacine hydrochloride; MS2; Q-Tof; [M-H]-
Name: Isoguvacine hydrochloride
Name: 1,2,3,6-Tetrahydro-4-pyridinecarboxylic acid hydrochloride
Name: 1,2,3,6-tetrahydropyridine-4-carboxylic acid
Class: CLASS1 Other
Class: CLASS2 Other
Class: CLASS3 Isoguvacine
Formula: C6H9NO2
Exact mass: 127.14
SMILES: C1CNCC=C1C(=O)O
InChI: InChI=1/C6H9NO2/c8-6(9)5-1-3-7-4-2-5/h1,7H,2-4H2,(H,8,9)/f/h8H
Instrument: Q-Tof Premier, Waters
Ion type: [M-H]-
Precursor m/z: 126.05553
m/z	relative intensity
97.0296	145
126.0555	999
