Mass spectrum: pyridoxal hydrochrolide; MS2; Q-Tof; [M-H]-
Name: Pyridoxal hydrochrolide
Name: PL
Name: PL-HCl
Name: Vitamin B6
Name: Pyridoxaldehyde
Name: 3-Hydroxy-5-(hydroxymethyl)-2-methyl-4-pyridinecarboxaldehyde
Name: Hydroxy-5-hydroxymethyl-2-methylisonicotinaldehyde
Name: 3-hydroxy-5-(hydroxymethyl)-2-methylpyridine-4-carbaldehyde
Class: CLASS1 Other
Class: CLASS2 Vitamin
Formula: C8H9NO3
Exact mass: 167.16
SMILES: CC1=NC=C(C(=C1O)C=O)CO
InChI: InChI=1/C8H9NO3/c1-5-8(12)7(4-11)6(3-10)2-9-5/h2,4,10,12H,3H2,1H3
Instrument: Q-Tof Premier, Waters
Ion type: [M-H]-
Precursor m/z: 166.05044
m/z	relative intensity
108.0449	999
136.0404	482
138.0553	888
166.0504	801
