Mass spectrum: Kaempferol-3-Glucoside; MS2; Q-Tof; [M-H]-
Name: Kaempferol-3-Glucoside
Name: Kaem-3-Glc
Name: Astragalin
Name: Astragaline
Name: Kaempferol-3-beta-D-glucopyranoside
Name: 4H-1-Benzopyran-4-one, 3-(beta-D-glucopyranosyloxy)-5,7-dihydroxy-2-(4-hydroxyphenyl)-)
Name: 5,7-dihydroxy-2-(4-hydroxyphenyl)-3-[(2S,3R,4S,5S,6R)-3,4,5-trihydroxy-6-(hydroxymethyl)oxan-2-yl]oxychromen-4-one
Class: CLASS1 Flavonoid
Class: CLASS2 Flavonol
Class: CLASS3 Kaempferol glycoside
Formula: C21H20O11
Exact mass: 448.38
SMILES: C1=CC(=CC=C1C2=C(C(=O)C3=C(C=C(C=C3O2)O)O)OC4C(C(C(C(O4)CO)O)O)O)O
InChI: InChI=1/C21H20O11/c22-7-13-15(26)17(28)18(29)21(31-13)32-20-16(27)14-11(25)5-10(24)6-12(14)30-19(20)8-1-3-9(23)4-2-8/h1-6,13,15,17-18,21-26,28-29H,7H2/t13-,15-,17+,18-,21+/m1/s1
Instrument: Q-Tof Premier, Waters
Ion type: [M-H]-
Precursor m/z: 447.09274
m/z	relative intensity
183.0461	86
227.0359	843
228.0409	61
255.0314	908
256.0389	134
284.034	735
285.0432	344
447.0927	999
448.1042	98
