Mass spectrum: Kaempferol-3-O-beta-D-galactoside-7-O-alpha-L-rhamnoside; MS2; Q-Tof; [M-H]-
Name: Kaempferol-3-O-beta-D-galactoside-7-O-alpha-L-rhamnoside
Name: Kaem-3-Gal-7-Rha
Name: Kaempferol-3-galactoside-7-rhamnoside
Class: CLASS1 Flavonoid
Class: CLASS2 Flavonol
Class: CLASS3 Kaempferol glycoside
Formula: C27H30O15
Exact mass: 594.53
SMILES: c
InChI: 1/C4H9NO2/c5-3-1-2-4(6)7/h1-3,5H2,(H,6,7)/f/h6H
Instrument: Q-Tof Premier, Waters
Ion type: [M-H]-
Precursor m/z: 593.15064
m/z	relative intensity
227.0365	64
255.0308	338
256.037	52
283.0258	999
284.0338	275
285.0428	537
286.0473	59
430.0934	402
431.1008	149
447.0956	617
448.1012	89
593.1506	895
594.1625	182
