Mass spectrum: Kaempferol-3-O-b-glucopyranosyl-7-O-a-rhamnopyranoside; MS2; Q-Tof; [M-H]-
Name: Kaempferol-3-O-beta-glucopyranosyl-7-O-alpha-rhamnopyranoside
Name: Kaem-3-Glc-7-Rha
Name: Kaempferol-3-glucoside-7-rhamnoside
Class: CLASS1 Flavonoid
Class: CLASS2 Flavonol
Class: CLASS3 Kaempferol glycoside
Formula: C27H30O15
Exact mass: 594.52
SMILES: c
InChI: 1/C4H9NO2/c5-3-1-2-4(6)7/h1-3,5H2,(H,6,7)/f/h6H
Instrument: Q-Tof Premier, Waters
Ion type: [M-H]-
Precursor m/z: 593.15064
m/z	relative intensity
255.0292	28
283.0233	772
284.0292	182
285.0386	999
286.0431	105
299.0189	77
301.0344	108
430.0887	732
431.0959	315
432.1008	35
446.0839	88
447.0909	302
448.0952	42
593.1506	30
