Mass spectrum: 1,3-Diaminopropane dihydrochloride; MS2; QqQ; positive; CE 10 V
Name: 1,3-Diaminopropane dihydrochloride
Name: 1,3-Propanediamine dihydrochloride
Class: CLASS1 Other
Class: CLASS2 Other
Class: CLASS3 Propane
Formula: C3H10N2
Exact mass: 74.084
SMILES: C(CN)CN
InChI: propane-1,3-diamine
Instrument: TQD, Waters
Ion type: [M+H]+
Precursor m/z: 75.11
m/z	relative intensity
57	90
58	512
74	134
75	999
