Mass spectrum: cis-Aconitic acid; MS2; QqQ; positive; CE 10 V
Name: cis-Aconitic acid
Name: Achilleaic acid
Name: cis-aconitate
Name: cis-Oxaloacetic acid
Name: cis-1,2,3-Propenetricarboxylic Acid
Name: cis-Propene-1,2,3-tricarboxylic acid
Class: CLASS1 Other
Class: CLASS2 Carboxylic acid
Class: CLASS3 Tricarboxylic acid
Formula: C6H6O6
Exact mass: 174.016
SMILES: C(C(=CC(=O)O)C(=O)O)C(=O)O
InChI: (Z)-prop-1-ene-1,2,3-tricarboxylic acid
Instrument: TQD, Waters
Ion type: [M+H]+
Precursor m/z: 175.16
m/z	relative intensity
109	85
138	154
139	371
157	999
175	79
