Mass spectrum: 4-Hydroxyphenylacetic acid; MS2; QqQ; positive; CE 10 V
Name: 4-Hydroxyphenylacetic acid
Name: PHPA
Name: 4-Hydroxyphenylacetate
Name: 4-Carboxymethylphenol
Name: 4-Hydroxyphenylethanoic Acid
Class: CLASS1 Other
Class: CLASS2 Carboxylic acid
Class: CLASS3 Ethanoic acid
Formula: C8H8O3
Exact mass: 152.047
SMILES: C1=CC(=CC=C1CC(=O)O)O
InChI: 2-(4-hydroxyphenyl)acetic acid
Instrument: TQD, Waters
Ion type: [M+H]+
Precursor m/z: 152.11
m/z	relative intensity
89	46
90	749
91	98
110	395
111	999
