Mass spectrum: 5-Methyltetrahydrofolic acid disodium salt; MS2; QqQ; positive; CE 20 V
Name: 5-Methyltetrahydrofolic acid disodium salt
Name: Prefolic A
Name: 5-Methyl-5,6,7,8-tetrahydropteroyl-L-glutamic acid disodium salt
Class: CLASS1 Other
Class: CLASS2 Vitamin
Formula: C20H25N7O6
Exact mass: 459.186
SMILES: CN1C(CNC2=C1C(=O)N=C(N2)N)CNC3=CC=C(C=C3)C(=O)NC(CCC(=O)O)C(=O)O
InChI: 2-[[4-[(2-amino-5-methyl-4-oxo-1,6,7,8-tetrahydropteridin-6-yl)methylamino]benzoyl]amino]pentanedioic acid
Instrument: TQD, Waters
Ion type: [M+H]+
Precursor m/z: 459.44
m/z	relative intensity
311	999
