Mass spectrum: Indole-3-carboxyaldehyde; MS2; QqQ; positive; CE 20 V
Name: Indole-3-carboxyaldehyde
Name: Indole-3-aldehyde
Name: 3-Formylindole
Name: 1H-indole-3-carbaldehyde
Name: beta-Indolylaldehyde
Name: Indole-3-carboxaldehyde 
Class: CLASS1 Alkaloid
Class: CLASS2 Indole
Class: CLASS3 Indole
Formula: C9H7NO
Exact mass: 145.052
SMILES: C1=CC=C2C(=C1)C(=CN2)C=O
InChI: 1H-indole-3-carbaldehyde
Instrument: TQD, Waters
Ion type: [M+H]+
Precursor m/z: 146.12
m/z	relative intensity
91	61
117	130
118	999
145	148
146	329
