Mass spectrum: 2-Hydroxyisobutyric acid; MS2; QqQ; negative; CE 10 V
Name: 2-Hydroxyisobutyric acid
Name: 2-Methyllactic acid
Name: 2-Hydroxy-2-methylpropionic acid
Name: Acetonic Acid
Class: CLASS1 Other
Class: CLASS2 Carboxylic acid
Class: CLASS3 Acetonic acid
Formula: C4H8O3
Exact mass: 104.047
SMILES: CC(C)(C(=O)O)O
InChI: 2-hydroxy-2-methylpropanoic acid
Instrument: TQD, Waters
Ion type: [M-H]-
Precursor m/z: 103.04
m/z	relative intensity
102	223
103	999
