Mass spectrum: (+-)-Baclofen; MS2; QqQ; positive; CE 60 V
Name: (+-)-Baclofen
Name: Lioresal
Name: Kemstro
Name: Baclon
Name: Gabalon
Name: beta-(Aminomethyl)-p-chlorohydrocinnamic acid
Name: gamma-amino-beta-(p-chlorophenyl)butyric acid
Name: (+/-)-beta-(Aminomethyl)-4-chlorobenzenepropanoic acid
Class: CLASS1 Other
Class: CLASS2 Carboxylic acid
Class: CLASS3 Baclofen
Formula: C10H12ClNO2
Exact mass: 178.086
SMILES: C1=CC(=CC=C1C(CC(=O)O)CN)Cl
InChI: 4-amino-3-(4-chlorophenyl)butanoic acid
Instrument: TQD, Waters
Ion type: [M+H]+
Precursor m/z: 214.22
m/z	relative intensity
112	63
114	66
115	999
116	388
118	97
125	79
148	58
151	81
