Mass spectrum: Hexylamine; MS2; QqQ; positive; CE 60 V
Name: Hexylamine
Name: 1-Aminohexane
Name: 1-Hexanamine
Class: CLASS1 Other
Class: CLASS2 Other
Class: CLASS3 Hexylamine
Formula: C6H15N
Exact mass: 101.12
SMILES: CCCCCCN
InChI: hexan-1-amine
Instrument: TQD, Waters
Ion type: [M+H]+
Precursor m/z: 102.13
m/z	relative intensity
27	143
29	46
38	44
39	41
41	275
42	211
43	999
99	41
100	90
101	157
102	97
103	38
104	40
