Mass spectrum: D(+)-Galacturonic acid monohydrate; MS2; QqQ; negative; CE 10 V
Name: D(+)-Galacturonic acid monohydrate
Name: D-galacturonate
Class: CLASS1 Other
Class: CLASS2 Sugar
Class: CLASS3 Monosaccharide
Formula: C6H10O7
Exact mass: 194.042
SMILES: C1(C(C(OC(C1O)O)C(=O)O)O)O
InChI: (2S,3R,4S,5R)-3,4,5,6-tetrahydroxyoxane-2-carboxylic acid
Instrument: TQD, Waters
Ion type: [M-H]-
Precursor m/z: 193.14
m/z	relative intensity
192	142
193	999
