Mass spectrum: (R)-(-)-Phenylephrine hydrochloride; MS2; QqQ; positive; CE 20 V
Name: (R)-(-)-Phenylephrine hydrochloride
Name: Neo-Synephrine
Name: Metasympatol
Name: Visadron
Name: Mesaton
Name: Mezaton
Name: Metaoxedrine
Name: m-Sympatol
Name: m-Oxedrine
Name: (R)-(?)-1-(3-Hydroxyphenyl)-2-methylaminoethanol hydrochloride
Name: L-(3-Hydroxyphenyl)-N-methylethanolamine hydrochloride
Class: CLASS1 Other
Class: CLASS2 Other
Class: CLASS3 Phenylephrine
Formula: C9H13NO2
Exact mass: 167.094
SMILES: CNCC(C1=CC(=CC=C1)O)O
InChI: 3-[(1R)-1-hydroxy-2-methylaminoethyl]phenol
Instrument: TQD, Waters
Ion type: [M+H]+
Precursor m/z: 168.2
m/z	relative intensity
42	33
91	40
109	72
149	154
150	999
