Mass spectrum: 2'-Deoxyguanosine monohydrate ; MS2; QqQ; positive; CE 40 V
Name: 2'-Deoxyguanosine monohydrate 
Name: dG
Name: 2'-Deoxy-G
Name: Guanine-2'-deoxyriboside
Name: 9-(2-Deoxy-beta-D-ribofuranosyl)guanine
Class: CLASS1 Other
Class: CLASS2 Nucleoside
Class: CLASS3 Cytidine
Formula: C10H13N5O4
Exact mass: 267.096
SMILES: C1C(C(OC1N2C=NC3=C2NC(=NC3=O)N)CO)O
InChI: 2-amino-9-[(2R,4S,5R)-4-hydroxy-5-(hydroxymethyl)oxolan-2-yl]-3H-purin-6-one
Instrument: TQD, Waters
Ion type: [M+H]+
Precursor m/z: 268.29
m/z	relative intensity
43	95
45	46
73	36
110	49
134	31
135	156
150	39
151	344
152	999
153	31
