Mass spectrum: 2'-Deoxyinosine-5'-monophosphate sodium salt; MS2; QqQ; positive; CE 20 V
Name: 2'-Deoxyinosine-5'-monophosphate sodium salt
Name: dIMP
Name: 2'-Deoxy-IMP
Class: CLASS1 Other
Class: CLASS2 Nucleotide
Class: CLASS3 Inosine phosphate
Formula: C10H13N4O7P
Exact mass: 332.052
SMILES: C1C(C(OC1N2C=NC3=C2NC=NC3=O)COP(=O)(O)O)O
InChI: [(2R,3S,5R)-3-hydroxy-5-(6-oxo-3H-purin-9-yl)oxolan-2-yl]methyl dihydrogen phosphate
Instrument: TQD, Waters
Ion type: [M+H]+
Precursor m/z: 333.27
m/z	relative intensity
80	35
81	410
136	226
137	999
216	95
217	183
