Mass spectrum: (-)-Nicotine ; MS2; QqQ; positive; CE 30 V
Name: (-)-Nicotine 
Name: beta-Pyridyl-alpha-N-methylpyrrolidine
Class: CLASS1 Alkaloid
Class: CLASS2 Nicotine
Class: CLASS3 Other
Formula: C10H14N2
Exact mass: 162.115
SMILES: CN1CCCC1C2=CN=CC=C2
InChI: 3-[(2S)-1-methylpyrrolidin-2-yl]pyridine
Instrument: TQD, Waters
Ion type: [M+H]+
Precursor m/z: 163.21
m/z	relative intensity
44	123
80	140
83	40
84	234
105	74
106	353
115	32
116	114
117	799
119	40
120	185
129	101
130	999
131	159
132	707
161	38
162	107
163	212
