Mass spectrum: (-)-Nicotine ; MS2; QqQ; positive; CE 40 V
Name: (-)-Nicotine 
Name: beta-Pyridyl-alpha-N-methylpyrrolidine
Class: CLASS1 Alkaloid
Class: CLASS2 Nicotine
Class: CLASS3 Other
Formula: C10H14N2
Exact mass: 162.115
SMILES: CN1CCCC1C2=CN=CC=C2
InChI: 3-[(2S)-1-methylpyrrolidin-2-yl]pyridine
Instrument: TQD, Waters
Ion type: [M+H]+
Precursor m/z: 163.21
m/z	relative intensity
42	37
43	51
44	145
77	54
78	40
79	37
80	119
83	66
84	179
90	41
92	93
93	43
103	60
105	113
106	191
114	30
115	57
116	238
117	999
118	44
120	86
128	46
129	203
130	843
131	130
132	253
