Mass spectrum: 2-Aminoethylphosphonic acid; MS2; QqQ; positive; CE 20 V
Name: 2-Aminoethylphosphonic acid
Name: 2-AEP
Name: Ciliatine
Name: Phosphonoethylamine
Class: CLASS1 Other
Class: CLASS2 Phosphate
Class: CLASS3 Phosphonic acid
Formula: C2H8NO3P
Exact mass: 125.024
SMILES: C(CP(=O)(O)O)N
InChI: 2-aminoethylphosphonic acid
Instrument: TQD, Waters
Ion type: [M+H]+
Precursor m/z: 126.06
m/z	relative intensity
30	40
80	106
81	82
96	41
97	205
107	32
108	415
109	999
124	47
125	237
126	678
