Mass spectrum: Benzocaine solution ; MS2; QqQ; positive; CE 20 V
Name: Benzocaine solution 
Name: Americaine
Name: 4-Aminobenzoic acid ethyl ester
Name: Ethyl p-aminobenzoate
Name: 4-Carbethoxyaniline
Name: Amben ethyl ester
Name: Anestezin
Name: Anesthesin
Name: Anesthone
Name: Keloform
Name: Norcain
Name: Orthesin
Name: Parathesin
Name: Topcaine
Class: CLASS1 Other
Class: CLASS2 Carboxylic acid
Class: CLASS3 Benzamidine
Formula: C9H11NO2
Exact mass: 165.078
SMILES: CCOC(=O)C1=CC=C(C=C1)N
InChI: ethyl 4-aminobenzoate
Instrument: TQD, Waters
Ion type: [M+H]+
Precursor m/z: 166.17
m/z	relative intensity
94	53
137	188
138	999
165	139
166	800
