Mass spectrum: Agmatine sulfate salt; MS2; QqQ; positive; CE 20 V
Name: Agmatine sulfate salt
Name: 1-Amino-4-guanidinobutane sulfate salt
Name: 4-Guanidinobutylamine sulfate salt
Name: N-(4-Aminobutyl)guanidine sulfate salt
Class: CLASS1 Other
Class: CLASS2 Other
Class: CLASS3 Agmatine
Formula: C5H14N4
Exact mass: 130.121
SMILES: C(CCN=C(N)N)CN
InChI: 2-(4-aminobutyl)guanidine
Instrument: TQD, Waters
Ion type: [M+H]+
Precursor m/z: 131.09
m/z	relative intensity
30	34
59	50
60	329
69	109
71	179
72	999
89	33
114	66
131	114
