Mass spectrum: Adenosine-5'-monophosphate sodium salt; MS2; QqQ; positive; CE 50 V
Name: Adenosine-5'-monophosphate sodium salt
Name: AMP
Name: A-5′-P
Name: 5′-Adenylic acid
Name: Phosphaden
Name: Adenovite
Class: CLASS1 Other
Class: CLASS2 Nucleotide
Class: CLASS3 Adenosine phosphate
Formula: C10H14N5O7P
Exact mass: 347.063
SMILES: C1=NC2=C(C(=N1)N)N=CN2C3C(C(C(O3)COP(=O)(O)O)O)O
InChI: [(2R,3S,4R,5R)-5-(6-aminopurin-9-yl)-3,4-dihydroxyoxolan-2-yl]methyl dihydrogen phosphate
Instrument: TQD, Waters
Ion type: [M+H]+
Precursor m/z: 348.27
m/z	relative intensity
96	44
97	320
134	33
135	266
136	999
