Mass spectrum: Guanosine-5'-diphosphate sodium salt; MS2; QqQ; positive; CE 50 V
Name: Guanosine-5'-diphosphate sodium salt
Name: GDP
Class: CLASS1 Other
Class: CLASS2 Nucleotide
Class: CLASS3 Guanosine phosphate
Formula: C10H15N5O11P2
Exact mass: 443.024
SMILES: C1=NC2=C(N1C3C(C(C(O3)COP(=O)(O)OP(=O)(O)O)O)O)NC(=NC2=O)N
InChI: [(2R,3S,4R,5R)-5-(2-amino-6-oxo-3H-purin-9-yl)-3,4-dihydroxyoxolan-2-yl]methyl phosphono hydrogen phosphate
Instrument: TQD, Waters
Ion type: [M+H]+
Precursor m/z: 444.27
m/z	relative intensity
152	999
