Mass spectrum: Sinapyl alcohol; MS2; QqQ; positive; CE 20 V
Name: Sinapyl alcohol
Name: 4-Hydroxy-3,5-dimethoxycinnamyl alcohol
Class: CLASS1 Phenylpropanoid
Class: CLASS2 Phenylpropanoid monomer
Class: CLASS3 Sinapyl alcohol
Formula: C11H14O4
Exact mass: 210.089
SMILES: COC1=CC(=CC(=C1O)OC)C=CCO
InChI: 4-[(E)-3-hydroxyprop-1-enyl]-2,6-dimethoxyphenol
Instrument: TQD, Waters
Ion type: [M+H]+
Precursor m/z: 211.26
m/z	relative intensity
150	999
167	621
