Mass spectrum: Malonic acid; MS2; QqQ; positive; CE 10 V
Name: Malonic acid
Name: Malonate
Name: 1,3-Propanedioic acid
Name: Carboxyacetic acid
Name: Dicarboxymethane
Name: Methanedicarboxylic acid
Class: CLASS1 Other
Class: CLASS2 Carboxylic acid
Class: CLASS3 Malonic acid
Formula: C3H4O4
Exact mass: 104.01
SMILES: C(C(=O)O)C(=O)O
InChI: propanedioic acid
Instrument: TQD, Waters
Ion type: [M+H]+
Precursor m/z: 105.06
m/z	relative intensity
23	123
63	266
64	999
