Mass spectrum: L-Glutathione (reduced form); MS2; QqQ; negative; CE 10 V
Name: L-Glutathione (reduced form)
Name: GSH
Name: gamma-Glu-Cys-Gly
Name: gamma-L-Glutamyl-L-cysteinyl-glycine
Class: CLASS1 Amino acid
Class: CLASS2 Peptide
Class: CLASS3 Oligopeptide
Formula: C10H17N3O6S
Exact mass: 307.083
SMILES: C(CC(=O)NC(CS)C(=O)NCC(=O)O)C(C(=O)O)N
InChI: (2S)-2-amino-5-[[(2R)-1-(carboxymethylamino)-1-oxo-3-sulfanylpropan-2-yl]amino]-5-oxopentanoic acid
Instrument: TQD, Waters
Ion type: [M-H]-
Precursor m/z: 306.28
m/z	relative intensity
305	32
306	999
