Mass spectrum: Glutaric acid; MS2; QqQ; negative; CE 10 V
Name: Glutaric acid
Name: Glutamic Acid
Name: 1,3-Propanedicarboxylic acid
Name: Dicarboxylic Acid C5
Name: 1,5-Pentanedioic acid
Class: CLASS1 Other
Class: CLASS2 Carboxylic acid
Class: CLASS3 Glutaric acid
Formula: C5H8O4
Exact mass: 132.042
SMILES: C(CC(=O)O)CC(=O)O
InChI: pentanedioic acid
Instrument: TQD, Waters
Ion type: [M-H]-
Precursor m/z: 131.06
m/z	relative intensity
87	201
130	45
131	999
