Mass spectrum: L-Carnitine hydrochloride; MS2; QqQ; positive; CE 40 V
Name: L-Carnitine hydrochloride
Name: Vitamin BT
Name: (-)-beta-Hydroxy-gamma-(trimethylammonio)butyrate
Name: Levocarnitine
Name: L-gamma-Trimethyl-beta-hydroxybutyrobetaine
Class: CLASS1 Other
Class: CLASS2 Vitamin
Formula: C7H16NO3
Exact mass: 162.113
SMILES: C[N+](C)(C)CC(CC(=O)[O-])O
InChI: (3R)-3-hydroxy-4-trimethylazaniumylbutanoate
Instrument: TQD, Waters
Ion type: [M+H]+
Precursor m/z: 162.18
m/z	relative intensity
28	44
29	180
41	30
42	180
43	999
57	209
58	176
59	173
60	230
84	128
85	248
101	30
102	128
103	109
161	54
162	46
