Mass spectrum: Mecamylamine hydrochloride; MS2; QqQ; positive; CE 20 V
Name: Mecamylamine hydrochloride
Name: 2-(Methylamino)isocamphane hydrochloride
Name: N,2,3,3-Tetramethylbicyclo(2.2.1)heptan-2-amine hydrochloride
Name: Mecamine hydrochloride
Name: Inversine hydrochloride
Name: Mecamylamine hydrochloride
Name: 3-Methylaminoisocamphane hydrochloride
Name: Mevasin hydrochloride
Name: N,2,3,3-Tetramethyl-2-norbornanamine hydrochloride
Class: CLASS1 Other
Class: CLASS2 Other
Class: CLASS3 Other
Formula: C11H21N
Exact mass: 167.167
SMILES: CC1(C2CCC(C2)C1(C)NC)C
InChI: N,5,6,6-tetramethylbicyclo[2.2.1]heptan-5-amine
Instrument: TQD, Waters
Ion type: [M+H]+
Precursor m/z: 168.28
m/z	relative intensity
31	87
32	574
80	39
81	999
95	41
136	58
137	823
168	70
