Mass spectrum: L-Valine; MS2; QqQ; positive; CE 20 V
Name: L-Valine
Name: Val
Name: L-2-Amino-3-methylbutanoic acid
Name: (S)-Î±-Aminoisovaleric acid
Name: L-alpha-Aminoisovalerianic Acid
Class: CLASS1 Amino acid
Class: CLASS2 Valine
Formula: C5H11NO2
Exact mass: 117.078
SMILES: CC(C)C(C(=O)O)N
InChI: (2S)-2-amino-3-methylbutanoic acid
Instrument: TQD, Waters
Ion type: [M+H]+
Precursor m/z: 118.11
m/z	relative intensity
54	34
55	91
71	167
72	999
118	49
