Mass spectrum: L-Carnitine hydrochloride; MS2; QqQ; positive; CE 20 V
Name: L-Carnitine hydrochloride
Name: Vitamin BT
Name: (-)-beta-Hydroxy-gamma-(trimethylammonio)butyrate
Name: Levocarnitine
Name: L-gamma-Trimethyl-beta-hydroxybutyrobetaine
Class: CLASS1 Other
Class: CLASS2 Vitamin
Formula: C7H16NO3
Exact mass: 162.113
SMILES: C[N+](C)(C)CC(CC(=O)[O-])O
InChI: (3R)-3-hydroxy-4-trimethylazaniumylbutanoate
Instrument: TQD, Waters
Ion type: [M+H]+
Precursor m/z: 162.18
m/z	relative intensity
43	66
59	52
60	293
85	91
102	142
103	320
161	197
162	999
