Mass spectrum: Inosine; MS2; QqQ; negative; CE 30 V
Name: Inosine
Name: INO
Name: (?)-Inosine
Name: beta-Inosine
Name: Hypoxanthine 9-beta-D-ribofuranoside
Name: 9-beta-D-ribofuranosylhypoxanthine
Name: Hypoxanthine ribonucleoside
Name: Oxiamin
Name: Ribonosine
Name: Trophicardyl
Class: CLASS1 Other
Class: CLASS2 Nucleoside
Class: CLASS3 Inosine
Formula: C10H12N4O5
Exact mass: 268.08
SMILES: C1=NC(=O)C2=C(N1)N(C=N2)C3C(C(C(O3)CO)O)O
InChI: 9-[(2R,3R,4S,5R)-3,4-dihydroxy-5-(hydroxymethyl)oxolan-2-yl]-3H-purin-6-one
Instrument: TQD, Waters
Ion type: [M-H]-
Precursor m/z: 267.26
m/z	relative intensity
134	141
135	999
266	38
267	98
