Mass spectrum: Indole-3-acetaldehyde sodium bisulfite; MS2; QqQ; negative; CE 30 V
Name: Indole-3-acetaldehyde sodium bisulfite
Name: 1-hydroxy-2-(1H-indol-3-yl)ethanesulfonic acid 
Class: CLASS1 Alkaloid
Class: CLASS2 Indole
Class: CLASS3 Indole
Formula: C10H11NO4S
Exact mass: 241.04
SMILES: C1=CC=C2C(=C1)C(=CN2)CC(O)S(=O)(=O)O
InChI: 1-hydroxy-2-(1H-indol-3-yl)ethanesulfonic acid
Instrument: TQD, Waters
Ion type: [M-H]-
Precursor m/z: 240.21
m/z	relative intensity
80	277
81	999
