Mass spectrum: Fusaric acid; MS2; QqQ; positive; CE 50 V
Name: Fusaric acid
Name: Fusarate
Name: Fusarinic acid
Name: 5-Butylpicolinic acid
Name: 5-butylpyridine-3-carboxylic acid
Class: CLASS1 Other
Class: CLASS2 Carboxylic acid
Class: CLASS3 Fusaric acid
Formula: C10H13NO2
Exact mass: 179.094
SMILES: CCCCC1=CN=C(C=C1)C(=O)O
InChI: 5-butylpyridine-2-carboxylic acid
Instrument: TQD, Waters
Ion type: [M+H]+
Precursor m/z: 180.2
m/z	relative intensity
39	62
41	36
54	45
55	77
64	312
65	991
66	76
77	33
79	154
90	43
91	336
92	999
93	68
115	44
118	58
133	119
134	128
