Mass spectrum: L-Norleucine; MS2; QqQ; positive; CE 30 V
Name: L-Norleucine
Name: Nle
Name: L-2-Aminohexanoate
Name: (S)-(+)-2-Aminohexanoic acid
Name: (S)-2-Aminocaproic acid
Name: alpha-Aminocaproic acid
Name: Caprine
Name: Glycoleucine
Name: Norleucine
Class: CLASS1 Amino acid
Class: CLASS2 Leucine
Formula: C6H13NO2
Exact mass: 131.094
SMILES: CCCCC(C(=O)O)N
InChI: (2S)-2-aminohexanoic acid
Instrument: TQD, Waters
Ion type: [M+H]+
Precursor m/z: 132.14
m/z	relative intensity
29	386
30	999
40	59
41	173
42	53
43	211
69	151
84	51
85	294
86	863
