Mass spectrum: L-Aspartic acid; MS2; QqQ; positive; CE 10 V
Name: L-Aspartic acid
Name: Asp
Name: (S)-Aminobutanedioic acid
Name: (S)-(+)-Aminosuccinic acid
Class: CLASS1 Amino acid
Class: CLASS2 Aspartic acid
Formula: C4H7NO4
Exact mass: 133.037
SMILES: C(C(C(=O)O)N)C(=O)O
InChI: (2S)-2-aminobutanedioic acid
Instrument: TQD, Waters
Ion type: [M+H]+
Precursor m/z: 134.11
m/z	relative intensity
88	62
115	100
133	118
134	999
