Mass spectrum: PIPES; MS2; QqQ; negative; CE 10 V
Name: PIPES
Name: PIPES
Name: 1,4-Piperazinediethanesulfonic acid
Name: Piperazine-1,4-bis(2-ethanesulfonic acid)
Name: Piperazine-N,Nâ€²-bis(2-ethanesulfonic acid)
Class: CLASS1 Other
Class: CLASS2 Other
Class: CLASS3 Other
Formula: C8H18N2O6S2
Exact mass: 302.06
SMILES: C1CN(CCN1CCS(=O)(=O)O)CCS(=O)(=O)O
InChI: 2-[4-(2-sulfoethyl)piperazin-1-yl]ethanesulfonic acid
Instrument: TQD, Waters
Ion type: [M-H]-
Precursor m/z: 301.25
m/z	relative intensity
300	247
301	999
