Mass spectrum: R-(-)-1-Amino-2-propanol; MS2; QqQ; positive; CE 20 V
Name: R-(-)-1-Amino-2-propanol
Name: Mipa
Name: (-)-Isopropanolamine
Name: D-Alaninol
Name: (R)-(-)-1-aminopropan-2-ol
Class: CLASS1 Other
Class: CLASS2 Alkane
Formula: C3H9NO
Exact mass: 75.068
SMILES: CC(CN)O
InChI: (2R)-1-aminopropan-2-ol
Instrument: TQD, Waters
Ion type: [M+H]+
Precursor m/z: 76.08
m/z	relative intensity
29	40
30	164
40	142
41	594
43	102
57	167
58	999
76	44
