Mass spectrum: Phenylhydrazine; MS2; QqQ; positive; CE 10 V
Name: Phenylhydrazine
Name: Phenyldiazane
Name: Hydrazinobenzene
Class: CLASS1 Other
Class: CLASS2 Other
Class: CLASS3 Phenylhydrazine
Formula: C6H8N2
Exact mass: 108.068
SMILES: C1=CC=C(C=C1)NN
InChI: phenylhydrazine
Instrument: TQD, Waters
Ion type: [M+H]+
Precursor m/z: 109.1
m/z	relative intensity
88	999
