Mass spectrum: 3,4-Dihydroxybenzoic acid; MS2; QqQ; negative; CE 10 V
Name: 3,4-Dihydroxybenzoic acid
Name: 3,4-Dihydroxybenzoate
Name: Protocatechuic acid
Name: Protocatechuate
Name: Catechol-4-carboxylic Acid
Name: 4-Carboxy-1,2-dihydroxybenzene
Class: CLASS1 Other
Class: CLASS2 Benzoic acid
Class: CLASS3 Protocatechuic acid
Formula: C7H6O4
Exact mass: 154.026
SMILES: C1=CC(=C(C=C1C(=O)O)O)O
InChI: 3,4-dihydroxybenzoic acid
Instrument: TQD, Waters
Ion type: [M-H]-
Precursor m/z: 153.08
m/z	relative intensity
152	221
153	999
