Mass spectrum: Thioglycolic acid solution ; MS2; QqQ; negative; CE 10 V
Name: Thioglycolic acid solution 
Name: TGA
Name: Thioglycolate
Name: Mercaptoacetate
Name: Mercaptoacetic acid
Name: Mercaptoethanoic acid
Name: Thiovanic acid
Class: CLASS1 Other
Class: CLASS2 Other
Class: CLASS3 Other
Formula: C2H4O2S
Exact mass: 91.993
SMILES: C(C(=O)O)S
InChI: 2-sulfanylacetic acid
Instrument: TQD, Waters
Ion type: [M-H]-
Precursor m/z: 91
m/z	relative intensity
44	222
45	999
90	65
91	170
