Mass spectrum: Sebacic acid; MS2; QqQ; negative; CE 40 V
Name: Sebacic acid
Name: Decanedioic acid
Name: 1,8-Octanedicarboxylic acid
Name: 1,10-Decanedioic acid
Class: CLASS1 Other
Class: CLASS2 Carboxylic acid
Class: CLASS3 Sebacic acid
Formula: C10H18O4
Exact mass: 202.12
SMILES: C(CCCCC(=O)O)CCCC(=O)O
InChI: decanedioic acid
Instrument: TQD, Waters
Ion type: [M-H]-
Precursor m/z: 201.23
m/z	relative intensity
200	999
