Mass spectrum: rac-Glycerol 3-phosphoate disodium salt hexahydrate; MS2; QqQ; positive; CE 20 V
Name: rac-Glycerol 3-phosphoate disodium salt hexahydrate
Name: sn-Gro-1P
Name: glycero-3P
Name: glycero-1P
Name: glycerophosphoric acid
Name: rac-Glycerol 1-phosphate
Name: DL-alpha-Glycerophosphate 
Class: CLASS1 Other
Class: CLASS2 Phospholipid
Class: CLASS3 Glycerophosphate
Formula: C3H9O6P
Exact mass: 172.013
SMILES: C(C(COP(=O)(O)O)O)O
InChI: [(2R)-2,3-dihydroxypropyl] dihydrogen phosphate
Instrument: TQD, Waters
Ion type: [M+H]+
Precursor m/z: 173.13
m/z	relative intensity
56	67
57	66
98	216
99	999
173	42
