Mass spectrum: Spermine; MS2; QqQ; positive; CE 30 V
Name: Spermine
Name: N,N'-Bis(3-aminopropyl)-1,4-diaminobutane
Name: Gerontine
Name: Musculamine
Name: Neuridine
Name: 4,9-diazadodecamethylenediamine
Name: 4,9-Diazadodecane-1,12-diamine
Name: 4,9-Diaza-1,12-dodecanediamine
Name: Diaminopropyltetramethylenediamine
Class: CLASS1 Alkaloid
Class: CLASS2 Polyamine
Class: CLASS3 Spermine
Formula: C10H26N4
Exact mass: 202.215
SMILES: C(CCNCCCN)CNCCCN
InChI: N,N'-bis(3-aminopropyl)butane-1,4-diamine
Instrument: TQD, Waters
Ion type: [M+H]+
Precursor m/z: 203.38
m/z	relative intensity
57	56
58	177
70	31
83	213
84	410
111	64
112	999
128	62
129	236
