Mass spectrum: Sebacic acid; MS2; QqQ; positive; CE 20 V
Name: Sebacic acid
Name: Decanedioic acid
Name: 1,8-Octanedicarboxylic acid
Name: 1,10-Decanedioic acid
Class: CLASS1 Other
Class: CLASS2 Carboxylic acid
Class: CLASS3 Sebacic acid
Formula: C10H18O4
Exact mass: 202.12
SMILES: C(CCCCC(=O)O)CCCC(=O)O
InChI: decanedioic acid
Instrument: TQD, Waters
Ion type: [M+H]+
Precursor m/z: 203.29
m/z	relative intensity
42	47
57	67
69	87
81	157
96	51
97	78
115	44
121	344
131	43
138	96
139	999
185	473
