Mass spectrum: 3-Guanidinopropionic acid; MS2; QqQ; positive; CE 10 V
Name: 3-Guanidinopropionic acid
Name: 3-Guanidinopropanoate
Name: beta-Guanidinopropionic acid
Name: 3-Guanidinopropanoic acid
Name: N-(Aminomethyl)-beta-alanine
Class: CLASS1 Amino acid
Class: CLASS2 Alanine
Formula: C4H9N3O2
Exact mass: 131.069
SMILES: C(CN=C(N)N)C(=O)O
InChI: 3-(diaminomethylideneamino)propanoic acid
Instrument: TQD, Waters
Ion type: [M+H]+
Precursor m/z: 132.12
m/z	relative intensity
131	97
132	999
