Mass spectrum: gamma-Amino-n-butyric acid; MS2; QqQ; positive; CE 20 V
Name: gamma-Amino-n-butyric acid
Name: GABA
Name: 4-Aminobutyric acid
Name: 4-Aminobutylate
Name: 4-Aminobutanoic acid
Name: Piperidic acid
Name: Piperidinic acid
Name: Aminalon
Class: CLASS1 Amino acid
Class: CLASS2 Other
Class: CLASS3 GABA
Formula: C4H9NO2
Exact mass: 103.063
SMILES: C(CC(=O)O)CN
InChI: 4-aminobutanoic acid
Instrument: TQD, Waters
Ion type: [M+H]+
Precursor m/z: 104.08
m/z	relative intensity
41	95
42	173
43	376
44	204
45	593
68	49
69	361
86	718
87	999
103	132
104	105
