Mass spectrum: Sodium 4-hydroxy-benzoate; MS2; QqQ; negative; CE 10 V
Name: Sodium 4-hydroxy-benzoate
Name: p-Hydroxybenzoic acid sodium salt
Name: 4-Hydroxybenzoic acid sodium salt
Name: Hydroxybenzenecarboxylic acid
Class: CLASS1 Other
Class: CLASS2 Benzoic acid
Class: CLASS3 Hydroxybenzoic acid
Formula: C7H6O3
Exact mass: 138.031
SMILES: C1=CC(=CC=C1C(=O)O)O
InChI: 4-hydroxybenzoic acid
Instrument: TQD, Waters
Ion type: [M-H]-
Precursor m/z: 137.07
m/z	relative intensity
93	71
136	92
137	999
