Mass spectrum: Uridine-5′-diphosphoglucuronic acid trisodium salt ; MS2; QqQ; positive; CE 60 V
Name: Uridine-5′-diphosphoglucuronic acid trisodium salt 
Name: UDPGA
Name: UDP-GlcA
Name: UDP-Glucuronate
Name: Uridine-diphosphate-glucuronic acid
Name: UDP-Glucopyranosuronic Acid 
Class: CLASS1 Other
Class: CLASS2 Nucleotide
Class: CLASS3 Uridine phosphate
Formula: C15H22N2O18P2
Exact mass: 580.034
SMILES: C1=CN(C(=O)NC1=O)C2C(C(C(O2)COP(=O)(O)OP(=O)(O)OC3C(C(C(C(O3)C(=O)O)O)O)O)O)O
InChI: (2S,3S,4S,5R,6R)-6-[[[(2R,3S,4R,5R)-5-(2,4-dioxopyrimidin-1-yl)-3,4-dihydroxyoxolan-2-yl]methoxy-hydroxyphosphoryl]oxy-hydroxyphosphoryl]oxy-3,4,5-trihydroxyoxane-2-carboxylic acid
Instrument: TQD, Waters
Ion type: [M+H]+
Precursor m/z: 581.35
m/z	relative intensity
97	999
