Mass spectrum: N-Methyl-DL-Alanine; MS2; QqQ; positive; CE 20 V
Name: N-Methyl-DL-Alanine
Name: N-Me-DL-Ala
Name: DL-N-Methylalanine
Class: CLASS1 Amino acid
Class: CLASS2 Alanine
Formula: C4H9NO2
Exact mass: 103.063
SMILES: CC(C(=O)O)NC
InChI: (2S)-2-methylaminopropanoic acid
Instrument: TQD, Waters
Ion type: [M+H]+
Precursor m/z: 104.1
m/z	relative intensity
57	221
58	999
104	49
