Mass spectrum: Nicotinic acid mono nucleotide ; MS2; QqQ; positive; CE 60 V
Name: Nicotinic acid mono nucleotide 
Name: NCN
Name: NaMN
Name: deamido-NMN
Name: nicotinate-D-ribonucleotide
Class: CLASS1 Other
Class: CLASS2 Vitamin
Formula: C11H14NO9P
Exact mass: 335.04
SMILES: C1=CC(=C[N+](=C1)C2C(C(C(O2)COP(=O)(O)O)O)O)C(=O)O
InChI: 1-[(2R,3R,4S,5R)-3,4-dihydroxy-5-(phosphonooxymethyl)oxolan-2-yl]pyridin-1-ium-3-carboxylic acid
Instrument: TQD, Waters
Ion type: [M+H]+
Precursor m/z: 336.26
m/z	relative intensity
40	89
41	265
69	132
78	67
80	81
96	401
97	999
122	55
123	342
124	822
