Mass spectrum: Quercetin-3-O-glucose-6''-acetate; MS2; QqQ; negative; CE 60 V
Name: Quercetin-3-O-glucose-6''-acetate
Name: Quer-3-Glc-6pp-acetate
Name: quercetin-3-O-beta-D-glucopyranosyl-6''-acetate
Name: quercetin 3-(6''-acetylglucoside)
Class: CLASS1 Flavonoid
Class: CLASS2 Flavonol
Class: CLASS3 Quercetin glycoside
Formula: C23H22O13
Exact mass: 506.106
SMILES: no data
InChI: no data
Instrument: TQD, Waters
Ion type: [M-H]-
Precursor m/z: 505.44
m/z	relative intensity
243	31
254	36
255	135
270	168
271	481
298	86
299	425
300	999
301	329
