Mass spectrum: nordihydrocapsaicin; MS2; QqQ; positive; CE 10 V
Name: nordihydrocapsaicin
Name: -
Class: CLASS1 Other
Class: CLASS2 Other
Class: CLASS3 Capsaicin
Formula: C17H27NO3
Exact mass: 293.199
SMILES: no data
InChI: no data
Instrument: TQD, Waters
Ion type: [M+H]+
Precursor m/z: 294.41
m/z	relative intensity
137	422
170	65
294	999
