Mass spectrum: 3-methyl-2-butenal; MS2; QqQ; positive; CE 20 V
Name: 3-methyl-2-butenal
Name: Prenal
Name: 3,3-Dimethylacrolein
Name: 3,3-Dimethylacrylaldehyde
Name: 3-Methylcrotonaldehyde
Name: Senecialdehyde
Class: CLASS1 Other
Class: CLASS2 Isothiocyanate
Formula: C5H8O
Exact mass: 84.057
SMILES: CC(=CC=O)C
InChI: 3-methylbut-2-enal
Instrument: TQD, Waters
Ion type: [M+H]+
Precursor m/z: 84.11
m/z	relative intensity
43	999
