Mass spectrum: Kaempferol-3-O-beta-D-galactoside-7-O-alpha-L-rhamnoside; MS2; QqQ; positive; CE 20 V
Name: Kaempferol-3-O-beta-D-galactoside-7-O-alpha-L-rhamnoside
Name: Kaem-3-Gal-7-Rha
Name: Kaempferol-3-galactoside-7-rhamnoside
Class: CLASS1 Flavonoid
Class: CLASS2 Flavonol
Class: CLASS3 Kaempferol glycoside
Formula: C27H30O15
Exact mass: 594.158
SMILES: no data
InChI: no data
Instrument: TQD, Waters
Ion type: [M+H]+
Precursor m/z: 595.5
m/z	relative intensity
287	192
432	264
433	999
434	237
594	80
595	207
596	177
