Mass spectrum: Dihydrocapsaicin; MS2; QqQ; positive; CE 30 V
Name: Dihydrocapsaicin
Name: Dihydrocapsacine
Name: 8-Methyl-N-vanillylnonanamide
Name: N-((4-hydroxy-3-methoxyphenyl)methyl)-8-methyl-nonanamide
Class: CLASS1 Other
Class: CLASS2 Other
Class: CLASS3 Capsaicin
Formula: C18H29NO3
Exact mass: 307.214
SMILES: CC(C)CCCCCCC(=O)NCC1=CC(=C(C=C1)O)OC
InChI: N-[(4-hydroxy-3-methoxyphenyl)methyl]-8-methylnonanamide
Instrument: TQD, Waters
Ion type: [M+H]+
Precursor m/z: 308.44
m/z	relative intensity
136	208
137	999
