Mass spectrum: Quercetin-3-O-glucose-6''-acetate; MS2; QqQ; positive; CE 60 V
Name: Quercetin-3-O-glucose-6''-acetate
Name: Quer-3-Glc-6pp-acetate
Name: quercetin-3-O-beta-D-glucopyranosyl-6''-acetate
Name: quercetin 3-(6''-acetylglucoside)
Class: CLASS1 Flavonoid
Class: CLASS2 Flavonol
Class: CLASS3 Quercetin glycoside
Formula: C23H22O13
Exact mass: 506.106
SMILES: no data
InChI: no data
Instrument: TQD, Waters
Ion type: [M+H]+
Precursor m/z: 507.43
m/z	relative intensity
43	181
53	100
57	37
68	63
69	167
80	34
81	353
84	47
85	157
96	38
97	161
99	51
108	78
109	190
126	42
127	75
300	55
301	95
302	353
303	999
304	244
