Mass spectrum: N-acetyl-D-mannosamine; MS2; QqQ; positive; CE 10 V
Name: N-acetyl-D-mannosamine
Name: ManNAc
Name: 2-Acetamido-2-deoxy-D-mannopyranose
Name: N-Acetyl-D-mannosaminide
Class: CLASS1 Other
Class: CLASS2 Sugar
Class: CLASS3 Monosaccharide
Formula: C8H15NO6
Exact mass: 221.089
SMILES: CC(=O)NC1C(C(C(OC1O)CO)O)O
InChI: N-[(3S,4R,5S,6R)-2,4,5-trihydroxy-6-(hydroxymethyl)oxan-3-yl]acetamide
Instrument: TQD, Waters
Ion type: [M+H]+
Precursor m/z: 222.27
m/z	relative intensity
126	280
168	39
185	34
186	337
203	99
204	999
221	83
222	400
