Mass spectrum: (S)-(+)-2-(anilinomethyl)pyrrolidine; MS2; QqQ; positive; CE 60 V
Name: (S)-(+)-2-(anilinomethyl)pyrrolidine
Name: (S)-(+)-N-(2-Pyrrolidinomethyl)aniline
Name: (2S)-Phenylpyrrolidin-2-ylmethylamine
Class: CLASS1 Other
Class: CLASS2 Other
Class: CLASS3 Pyrrolidine
Formula: C11H16N2
Exact mass: 176.131
SMILES: C1CC(NC1)CNC2=CC=CC=C2
InChI: N-[[(2S)-pyrrolidin-2-yl]methyl]aniline
Instrument: TQD, Waters
Ion type: [M+H]+
Precursor m/z: 177.25
m/z	relative intensity
28	31
29	80
40	39
41	67
42	90
43	59
55	462
56	999
67	51
79	30
83	68
84	262
90	32
