Mass spectrum: 6-Hydroxynicotinic Acid; MS2; QqQ; positive; CE 20 V
Name: 6-Hydroxynicotinic Acid
Name: 6-Hydroxynicotinate
Name: 6-Hydroxypyridine-3-carboxylic acid
Name: 2-Hydroxy-5-pyridinecarboxylic acid
Name: ,6-Dihydro-6-oxo-3-pyridinecarboxylic acid
Class: CLASS1 Other
Class: CLASS2 Vitamin
Formula: C6H5NO3
Exact mass: 139.026
SMILES: C1=CC(=O)NC=C1C(=O)O
InChI: 6-oxo-1H-pyridine-3-carboxylic acid
Instrument: TQD, Waters
Ion type: [M+H]+
Precursor m/z: 140.09
m/z	relative intensity
122	300
138	41
139	221
140	999
