Mass spectrum: 4-Methyl-5-thiazoleethanol; MS2; QqQ; positive; CE 50 V
Name: 4-Methyl-5-thiazoleethanol
Name: MHT
Name: Sulfurol
Name: Hemineurine
Name: 4-Methyl-5-hydroxyethylthiazole
Class: CLASS1 Other
Class: CLASS2 Other
Class: CLASS3 Thiazole
Formula: C6H9NOS
Exact mass: 143.04
SMILES: CC1=C(SC=N1)CCO
InChI: 2-(4-methyl-1,3-thiazol-5-yl)ethanol
Instrument: TQD, Waters
Ion type: [M+H]+
Precursor m/z: 144.11
m/z	relative intensity
42	69
45	32
53	39
55	56
65	31
71	85
72	61
86	89
111	129
112	507
113	999
126	69
143	41
144	57
