Mass spectrum: Dihydro-L-orotic Acid ; MS2; QqQ; negative; CE 10 V
Name: Dihydro-L-orotic Acid 
Name: L-Dihydroorotate
Name: 2,6-Dioxohexahydro-4-pyrimidinecarboxylic acid
Name: L-Hydroorotic acid
Name: (S)-4,5-Dihydroorotic Acid
Class: CLASS1 Other
Class: CLASS2 Vitamin
Formula: C5H6N2O4
Exact mass: 158.032
SMILES: C1C(NC(=O)NC1=O)C(=O)O
InChI: (4S)-2,6-dioxo-1,3-diazinane-4-carboxylic acid
Instrument: TQD, Waters
Ion type: [M-H]-
Precursor m/z: 157.1
m/z	relative intensity
112	46
113	394
156	186
157	999
