Mass spectrum: Pimelic acid; MS2; QqQ; negative; CE 10 V
Name: Pimelic acid
Name: Dicarboxylic Acid C7
Name: Pimelate
Name: Heptanedioic acid
Name: Heptane Diacid
Name: 1,5-Pentanedicarboxylic acid
Name: Pileric acid
Name: 6-Carboxyhexanoate
Name: Dimelic acid
Class: CLASS1 Other
Class: CLASS2 Carboxylic acid
Class: CLASS3 Pimelic acid
Formula: C7H12O4
Exact mass: 160.073
SMILES: C(CCC(=O)O)CCC(=O)O
InChI: heptanedioic acid
Instrument: TQD, Waters
Ion type: [M-H]-
Precursor m/z: 159.13
m/z	relative intensity
158	47
159	999
