Mass spectrum: Pyridoxal-5'-phosphate monohydrate ; MS2; QqQ; positive; CE 10 V
Name: Pyridoxal-5'-phosphate monohydrate 
Name: PLP
Name: Pyridoxal-5P
Name: Codecarboxylase
Name: Pyridoxal 5-phosphate
Name: 3-Hydroxy-2-methyl-5-((phosphonooxy)methyl)-4-pyridinecarboxaldehyde
Name: Pyromijin
Name: Hairoxal
Name: Pidopidon
Class: CLASS1 Other
Class: CLASS2 Vitamin
Formula: C8H10NO6P
Exact mass: 247.024
SMILES: CC1=NC=C(C(=C1O)C=O)COP(=O)(O)O
InChI: (4-formyl-5-hydroxy-6-methylpyridin-3-yl)methyl dihydrogen phosphate
Instrument: TQD, Waters
Ion type: [M+H]+
Precursor m/z: 248.22
m/z	relative intensity
247	159
248	999
249	32
