Mass spectrum: L-beta-homolysine-2HCl; MS2; QqQ; positive; CE 30 V
Name: L-beta-homolysine-2HCl
Name: (3S)-3,7-diaminoheptanoic acid
Class: CLASS1 Amino acid
Class: CLASS2 Lysine
Formula: C7H16N2O2
Exact mass: 160.121
SMILES: C(CCN)CC(CC(=O)O)N
InChI: (3S)-3,7-diaminoheptanoic acid
Instrument: TQD, Waters
Ion type: [M+H]+
Precursor m/z: 161.22
m/z	relative intensity
56	31
81	62
83	337
84	999
