Mass spectrum: D-Ribulose 1,5-diphosphate barium salt hydrate; MS2; QqQ; positive; CE 50 V
Name: D-Ribulose 1,5-diphosphate barium salt hydrate
Name: D-Ribulose-1,5-P2
Name: D-Ribulose-1,5-bisphosphate
Class: CLASS1 Other
Class: CLASS2 Suger phosphate
Class: CLASS3 Ribulose phosphate
Formula: C5H12O11P2
Exact mass: 309.985
SMILES: C(C(C(C(=O)COP(=O)(O)O)O)O)OP(=O)(O)O
InChI: (2,3-dihydroxy-4-oxo-5-phosphonooxypentyl) dihydrogen phosphate
Instrument: TQD, Waters
Ion type: [M+H]+
Precursor m/z: 311.22
m/z	relative intensity
78	999
