Mass spectrum: Disodium Glycerophoshate 5.5-Hydrate; MS2; QqQ; positive; CE 10 V
Name: Disodium Glycerophoshate 5.5-Hydrate
Name: Glycerol Phosphate 
Class: CLASS1 Other
Class: CLASS2 Suger phosphate
Class: CLASS3 Glycero phoshate
Formula: C3H9O6P
Exact mass: 172.013
SMILES: no data
InChI: no data
Instrument: TQD, Waters
Ion type: [M+H]+
Precursor m/z: 173.12
m/z	relative intensity
98	171
99	489
172	159
173	999
