Mass spectrum: 4-Hydroxypyridine; MS2; QqQ; positive; CE 10 V
Name: 4-Hydroxypyridine
Name: 4-Pyridinol
Name: 4-Pyridone
Name: gamma-Oxypyridine
Name: pyridin-4-ol
Class: CLASS1 Other
Class: CLASS2 Other
Class: CLASS3 Pyridine
Formula: C5H5NO
Exact mass: 95.037
SMILES: C1=CNC=CC1=O
InChI: 1H-pyridin-4-one
Instrument: TQD, Waters
Ion type: [M+H]+
Precursor m/z: 96.05
m/z	relative intensity
95	67
96	999
