Mass spectrum: 3,4-Dimethoxycinnamic acid; MS2; QqQ; positive; CE 30 V
Name: 3,4-Dimethoxycinnamic acid
Name: Dimethylcaffeic acid
Name: 3,4-Dimethoxyphenyl-2-propenoic acid
Name: 3-(3,4-Dimethoxyphenyl)acrylic Acid
Class: CLASS1 Phenylpropanoid
Class: CLASS2 Phenylpropanoid monomer
Class: CLASS3 Cinnamic acid
Formula: C11H12O4
Exact mass: 208.073
SMILES: COC1=C(C=C(C=C1)C=CC(=O)O)OC
InChI: (E)-3-(3,4-dimethoxyphenyl)prop-2-enoic acid
Instrument: TQD, Waters
Ion type: [M+H]+
Precursor m/z: 209.23
m/z	relative intensity
107	30
119	63
120	34
132	55
133	85
147	66
148	150
160	37
162	181
163	618
176	32
188	31
189	124
190	258
191	999
209	34
