Mass spectrum: 3,5-Dimethoxycinnamic acid ; MS2; QqQ; positive; CE 30 V
Name: 3,5-Dimethoxycinnamic acid 
Name: 3,5-Dimethoxyphenyl-2-propenoic acid
Class: CLASS1 Phenylpropanoid
Class: CLASS2 Phenylpropanoid monomer
Class: CLASS3 Cinnamic acid
Formula: C11H12O4
Exact mass: 208.073
SMILES: COC1=CC(=CC(=C1)C=CC(=O)O)OC
InChI: (E)-3-(3,5-dimethoxyphenyl)prop-2-enoic acid
Instrument: TQD, Waters
Ion type: [M+H]+
Precursor m/z: 209.23
m/z	relative intensity
90	31
91	45
119	105
123	30
135	38
147	177
148	999
163	125
166	66
181	49
189	35
190	263
191	835
209	86
