Mass spectrum: D-Psicose; MS2; QqQ; positive; CE 30 V
Name: D-Psicose
Name: Psi
Name: D-Altrulose
Name: Erythrohexulose
Name: Pseudofructose
Name: D-ribo-2-Ketohexulose
Name: (3R,4R,5R)-1,3,4,5,6-pentahydroxyhexan-2-one
Class: CLASS1 Other
Class: CLASS2 Sugar
Class: CLASS3 Monosaccharide
Formula: C6H12O6
Exact mass: 180.063
SMILES: C1C(C(C(C(O1)(CO)O)O)O)O
InChI: (3R,4R,5R)-2-(hydroxymethyl)oxane-2,3,4,5-tetrol
Instrument: TQD, Waters
Ion type: [M+H]+
Precursor m/z: 179.67
m/z	relative intensity
97	999
