Mass spectrum: L-Carnitine; MS2; QqQ; positive; CE 20 V
Name: L-Carnitine
Name: Vitamin BT
Name: (-)-beta-Hydroxy-gamma-(trimethylammonio)butyrate
Name: Levocarnitine
Name: L-gamma-Trimethyl-beta-hydroxybutyrobetaine
Class: CLASS1 Other
Class: CLASS2 Vitamin
Formula: C7H16NO3
Exact mass: 162.113
SMILES: C[N+](C)(C)CC(CC(=O)[O-])O
InChI: (3R)-3-hydroxy-4-trimethylazaniumylbutanoate
Instrument: TQD, Waters
Ion type: [M+H]+
Precursor m/z: 162.2
m/z	relative intensity
42	30
43	61
59	47
60	294
85	89
102	191
103	431
161	174
162	999
