Mass spectrum: cis-Zeatin; MS2; QqQ; positive; CE 50 V
Name: cis-Zeatin
Name: ZEZ
Name: 6-(4-Hydroxy-3-methyl-cis-2-butenylamino)purine
Name: (Z)-2-Methyl-4-(1H-purin-6-ylamino)-2-buten-1-ol
Name: N6-(4-Hydroxyisopentenyl)adenine
Name: (Z)-2-Methyl-4-(1H-purin-6-ylamino)but-2-en-1-ol
Class: CLASS1 Other
Class: CLASS2 Nucleoside
Class: CLASS3 Zeatin
Formula: C10H13N5O
Exact mass: 219.112
SMILES: CC(=CCNC1=NC=NC2=C1NC=N2)CO
InChI: (Z)-2-methyl-4-(7H-purin-6-ylamino)but-2-en-1-ol
Instrument: TQD, Waters
Ion type: [M+H]+
Precursor m/z: 220.29
m/z	relative intensity
41	91
42	216
43	999
67	59
118	48
119	208
134	79
135	204
136	580
148	44
