Mass spectrum: Hydroxypyruvic acid dimethyl ketal phosphate tri(cyclohexylammonium) salt  ; MS2; QqQ; positive; CE 20 V
Name: Hydroxypyruvic acid dimethyl ketal phosphate tri(cyclohexylammonium) salt  
Name: 2,2-Dimethoxypropanoic acid 3-phosphate
Name: 2,2-dimethoxy-3-phosphonooxypropanoic acid
Class: CLASS1 Other
Class: CLASS2 Nucleoside
Class: CLASS3 Uridine phosphate
Formula: C5H11O8P
Exact mass: 230.019
SMILES: COC(COP(=O)(O)O)(C(=O)O)OC
InChI: no data
Instrument: TQD, Waters
Ion type: [M+H]+
Precursor m/z: 527.27
m/z	relative intensity
330	999
