Mass spectrum: N-Acetyl-Phytosphingosine; MS2; QqQ; positive; CE 40 V
Name: N-Acetyl-Phytosphingosine
Name: N-C2:0-Phytoceramide
Class: CLASS1 Other
Class: CLASS2 Sphingosine
Formula: C20H41NO4
Exact mass: 359.303
SMILES: no data
InChI: no data
Instrument: TQD, Waters
Ion type: [M+H]+
Precursor m/z: 360.53
m/z	relative intensity
43	115
44	42
56	69
57	97
59	269
60	999
69	35
70	33
83	72
85	43
86	48
93	43
95	75
101	37
102	104
264	99
265	30
282	153
