Mass spectrum: gamma-Terpinene; MS2; QqQ; positive; CE 10 V
Name: gamma-Terpinene
Name: 1-Methyl-4-isopropyl-1,4-cyclohexadiene
Name: p-Mentha-1,4-diene
Name: Crithmene
Name: Moslene
Class: CLASS1 Terpenoid
Class: CLASS2 Monoterpenoid
Class: CLASS3 Terpinene
Formula: C10H16
Exact mass: 136.125
SMILES: CC1=CCC(=CC1)C(C)C
InChI: 1-methyl-4-propan-2-ylcyclohexa-1,4-diene
Instrument: TQD, Waters
Ion type: [M+H]+
Precursor m/z: 137.11
m/z	relative intensity
81	837
137	999
