Mass spectrum: Farnesol (mixture of isomers); MS2; QqQ; positive; CE 10 V
Name: Farnesol (mixture of isomers)
Name: Farnesyl alcohol
Name: 3,7,11-Trimethyl-2,6,10-dodecatrien-1-ol
Name: 3,7,11-Trimethyldodeca-2,6,10-trien-1-ol
Name: Dihydrofarnesol
Name: Stirrup
Name: Polyprenol
Class: CLASS1 Terpenoid
Class: CLASS2 Sesquiterpenoid
Class: CLASS3 Farnesol
Formula: C15H26O
Exact mass: 222.198
SMILES: CC(=CCCC(=CCCC(=CCO)C)C)C
InChI: (2E,6E)-3,7,11-trimethyldodeca-2,6,10-trien-1-ol
Instrument: TQD, Waters
Ion type: [M+H]+
Precursor m/z: 223.23
m/z	relative intensity
207	51
222	88
223	999
