Mass spectrum: Methyl Dihydrojasmonate; MS2; QqQ; positive; CE 10 V
Name: Methyl Dihydrojasmonate
Name: Methyl 3-Oxo-2-pentyl-1-cyclopentaneacetate
Name: Dihydrojasmonic Acid Methyl Ester
Name: Jessamona
Name: Methyl 2-pentyl-3-oxocyclopent-1-yl acetate
Name: Hedione
Name: Kharismal
Name: Cepionate
Name: Headeone
Name: Claigeon 
Class: CLASS1 Other
Class: CLASS2 Carboxylic acid
Class: CLASS3 Jasmonic acid
Formula: C13H22O3
Exact mass: 226.156
SMILES: CCCCCC1C(CCC1=O)CC(=O)OC
InChI: methyl 2-(3-oxo-2-pentylcyclopentyl)acetate
Instrument: TQD, Waters
Ion type: [M+H]+
Precursor m/z: 227.32
m/z	relative intensity
195	831
208	94
209	357
227	999
