Mass spectrum: 2',6'-Dihydroxy-4-Methoxychalcone-4'-O-Neohesperidoside; MS2; QqQ; positive; CE 30 V
Name: 2',6'-Dihydroxy-4-Methoxychalcone-4'-O-Neohesperidoside
Name: Dhmc-7-Glc-2pp-Man
Class: CLASS1 Flavonoid
Class: CLASS2 Chalcone
Class: CLASS3 Chalcone glycoside
Formula: C28H34O14
Exact mass: 594.194
SMILES: no data
InChI: no data
Instrument: TQD, Waters
Ion type: [M+H]+
Precursor m/z: 595.52
m/z	relative intensity
71	55
85	109
129	121
147	88
153	35
286	297
287	999
288	113
