Mass spectrum: N-Octanoylsphinganine,D-erythro; MS2; QqQ; positive; CE 20 V
Name: N-Octanoylsphinganine,D-erythro
Name: DHC8-Cer
Name: Dihydroceramide C8
Name: D-erythro-N-octanoylsphinganine
Name: N-octanoyl-4-sphinganine
Name: N-octanoylamino-4-octadecene-1, 3-diol
Class: CLASS1 Other
Class: CLASS2 Sphingosine
Formula: C26H53NO3
Exact mass: 427.402
SMILES: no data
InChI: no data
Instrument: TQD, Waters
Ion type: [M+H]+
Precursor m/z: 428.67
m/z	relative intensity
284	137
302	80
409	55
410	999
411	509
412	47
427	72
428	746
429	532
