Mass spectrum: 3-Hydroxy-3-methylglutarate; MS2; QqQ; positive; CE 50 V
Name: 3-Hydroxy-3-methylglutarate
Name: HMG
Name: HMGA
Name: 3-Hydroxy-3-methylglutaric Acid
Name: beta-Hydroxy-beta-methylglutaric acid
Name: Dicrotalic acid
Name: 3-Hydroxy-3-methylpentanedioic acid
Name: Meglutol
Name: Lipoglutaren
Name: Medroglutaric acid
Name: alpha-Keto-beta-oxy-beta-methylvalerate
Class: CLASS1 Amino acid
Class: CLASS2 Glutamic acid
Formula: C6H10O5
Exact mass: 162.052
SMILES: CC(CC(=O)O)(CC(=O)O)O
InChI: 3-hydroxy-3-methylpentanedioic acid
Instrument: TQD, Waters
Ion type: [M+H]+
Precursor m/z: 163.08
m/z	relative intensity
41	999
