Mass spectrum: Myricetin-3-Xyloside; MS2; QqQ; negative; CE 50 V
Name: Myricetin-3-Xyloside
Name: Myrc-3-Xyl
Class: CLASS1 Flavonoid
Class: CLASS2 Flavonol
Class: CLASS3 Myricetin glycoside
Formula: C20H18O12
Exact mass: 450.079
SMILES: no data
InChI: no data
Instrument: TQD, Waters
Ion type: [M-H]-
Precursor m/z: 449.39
m/z	relative intensity
270	42
271	117
287	38
314	92
315	302
316	999
317	148
