Mass spectrum: N-acetyl-DL-serine; MS2; QqQ; positive; CE 10 V
Name: N-acetyl-DL-serine
Name: Ser(Ac)
Name: 2-Acetylamino-3-hydroxy-propionic acid
Class: CLASS1 Amino acid
Class: CLASS2 Serine
Formula: C5H9NO4
Exact mass: 147.053
SMILES: CC(=O)NC(CO)C(=O)O
InChI: 2-acetamido-3-hydroxypropanoic acid
Instrument: TQD, Waters
Ion type: [M+H]+
Precursor m/z: 148.12
m/z	relative intensity
87	60
88	114
105	60
106	804
129	52
130	118
146	36
147	289
148	999
