Mass spectrum: Myricetin-3-Galactoside; MS2; QqQ; positive; CE 50 V
Name: Myricetin-3-Galactoside
Name: Myrc-3-Gal
Name: Myricetin-3-Galactopyranoside
Class: CLASS1 Flavonoid
Class: CLASS2 Flavonol
Class: CLASS3 Myricetin glycoside
Formula: C21H20O13
Exact mass: 480.09
SMILES: no data
InChI: no data
Instrument: TQD, Waters
Ion type: [M+H]+
Precursor m/z: 481.4
m/z	relative intensity
61	32
73	79
85	125
91	35
317	100
318	335
319	999
