Mass spectrum: L-Anserine nitrate salt; MS2; QqQ; positive; CE 30 V
Name: L-Anserine nitrate salt
Name: beta-Ala-3-Me-His
Name: beta-Alanyl-3-methyl-L-histidine
Class: CLASS1 Amino acid
Class: CLASS2 Serine
Formula: C10H16N4O3
Exact mass: 240.122
SMILES: CN1C=NC=C1CC(C(=O)O)NC(=O)CCN
InChI: (2S)-2-(3-aminopropanoylamino)-3-(3-methylimidazol-4-yl)propanoic acid
Instrument: TQD, Waters
Ion type: [M+H]+
Precursor m/z: 241.31
m/z	relative intensity
30	290
72	80
95	164
96	295
97	55
108	167
109	999
125	60
126	336
153	152
168	38
169	115
170	368
240	61
241	182
