Mass spectrum: sulfite (Sodium sulfite); MS2; QqQ; negative; CE 10 V
Name: sulfite (Sodium sulfite)
Name: sulphite
Name: sulfurous acid
Name: Sulphurous acid
Name: acide sulfureux
Name: schweflige Saeure
Name: trioxosulfuric acid
Name: dihydroxidooxidosulfur
Class: CLASS1 Other
Class: CLASS2 Other
Class: CLASS3 Other
Formula: H2SO3
Exact mass: 81.972
SMILES: OS(=O)O
InChI: sulfurous acid
Instrument: TQD, Waters
Ion type: [M-H]-
Precursor m/z: 80.93
m/z	relative intensity
34	621
35	999
80	406
81	885
