Mass spectrum: Myricetin-3-Xyloside; MS2; QqQ; negative; CE 60 V
Name: Myricetin-3-Xyloside
Name: Myrc-3-Xyl
Class: CLASS1 Flavonoid
Class: CLASS2 Flavonol
Class: CLASS3 Myricetin glycoside
Formula: C20H18O12
Exact mass: 450.079
SMILES: no data
InChI: no data
Instrument: TQD, Waters
Ion type: [M-H]-
Precursor m/z: 449.39
m/z	relative intensity
259	30
270	102
271	429
272	131
286	39
287	327
314	88
315	516
316	999
317	100
