Mass spectrum: Benzoic acid ; MS2; QqQ; positive; CE 10 V
Name: Benzoic acid 
Name: Benzoate
Name: Benthic Acid
Name: phenylformic acid
Name: Carboxybenzene
Name: Dracylic acid
Name: Benzen carboxilic acid
Name: Benzeneformic acid
Name: Benzenemethanoic acid
Class: CLASS1 Other
Class: CLASS2 Benzoic acid
Class: CLASS3 Other
Formula: C7H6O2
Exact mass: 122.036
SMILES: C1=CC=C(C=C1)C(=O)O
InChI: benzoic acid
Instrument: TQD, Waters
Ion type: [M+H]+
Precursor m/z: 123.04
m/z	relative intensity
81	31
122	109
123	999
