Mass spectrum: DL-p-Hydroxyphenyllactic acid; MS2; QqQ; positive; CE 10 V
Name: DL-p-Hydroxyphenyllactic acid
Name: HPLA
Name: 4-Hydroxyphenyllactate
Name: 3-(4-Hydroxyphenyl)-2-hydroxypropanoic acid
Name: p-Hydroxyphenyllactate
Name: 2-Hydroxy-3-(4-hydroxyphenyl)propanoate
Class: CLASS1 Amino acid
Class: CLASS2 Other
Class: CLASS3 BAIB
Formula: C9H10O4
Exact mass: 182.057
SMILES: C1=CC(=CC=C1CC(C(=O)O)O)O
InChI: 2-hydroxy-3-(4-hydroxyphenyl)propanoic acid
Instrument: TQD, Waters
Ion type: [M+H]+
Precursor m/z: 183.12
m/z	relative intensity
141	147
142	999
