Mass spectrum: (2R)-2-Hydroxy-2-phenethylglucosinolate; MS2; QqQ; negative; CE 60 V
Name: (2R)-2-Hydroxy-2-phenethylglucosinolate
Name: Glucosibarin
Class: CLASS1 Glucosinolate
Class: CLASS2 Aliphatic glucosinolate
Formula: C15H21NO10S2
Exact mass: 439.06
SMILES: no data
InChI: no data
Instrument: TQD, Waters
Ion type: [M-H]-
Precursor m/z: 438.37
m/z	relative intensity
59	37
74	430
75	999
81	43
90	44
95	94
96	996
97	953
437	45
