Mass spectrum: 3-hydroxy-3-methylbutanoic acid; MS2; QqQ; positive; CE 20 V
Name: 3-hydroxy-3-methylbutanoic acid
Name: beta-Hydroxyisovaleric Acid
Name: 3-Hydroxyisovalerate
Name: 3-Hydroxy-3-methyl Butyric Acid
Name: beta-hydroxy-beta-methylbutyrate
Class: CLASS1 Other
Class: CLASS2 Carboxylic acid
Class: CLASS3 Isovaleric acid
Formula: C5H10O3
Exact mass: 118.062
SMILES: CC(C)(CC(=O)O)O
InChI: 3-hydroxy-3-methylbutanoic acid
Instrument: TQD, Waters
Ion type: [M+H]+
Precursor m/z: 119.1
m/z	relative intensity
58	999
59	537
