Mass spectrum: 1-Isothiocyanato-6-(methylsulfenyl)-hexane; MS2; QqQ; positive; CE 40 V
Name: 1-Isothiocyanato-6-(methylsulfenyl)-hexane
Name: 6-Methylsulfenylhexyl isothiocyanate
Class: CLASS1 Other
Class: CLASS2 Isothiocyanate
Formula: C8H15NS2
Exact mass: 189.064
SMILES: no data
InChI: no data
Instrument: TQD, Waters
Ion type: [M+H]+
Precursor m/z: 190.2
m/z	relative intensity
28	58
40	45
41	34
54	102
55	999
61	81
80	36
