Mass spectrum: 1-Isothiocyanato-9-(methylsulfinyl)-nonane; MS2; QqQ; positive; CE 30 V
Name: 1-Isothiocyanato-9-(methylsulfinyl)-nonane
Name: 9-Methylsulfinylnonnyl isothiocyanate
Class: CLASS1 Other
Class: CLASS2 Isothiocyanate
Formula: C11H21NOS2
Exact mass: 247.106
SMILES: no data
InChI: no data
Instrument: TQD, Waters
Ion type: [M+H]+
Precursor m/z: 248.3
m/z	relative intensity
41	61
43	37
54	107
55	826
56	46
57	135
63	39
65	189
67	59
68	103
69	999
70	44
71	40
74	34
81	103
82	117
83	765
100	50
101	40
102	69
108	73
114	163
122	65
128	109
150	42
151	89
183	43
184	125
247	46
248	114
