Mass spectrum: DL-mandelic acid; MS2; QqQ; positive; CE 10 V
Name: DL-mandelic acid
Name: DL-mandelate
Name: DL-alpha-Hydroxyphenylacetic acid
Name: DL-alpha-Hydroxybenzeneacetic acid
Name: DL-alpha-Oxybenzeneacetic acid
Name: Phenylglycollic acid
Name: alpha-Hydroxy-alpha-toluic acid
Name: Almond acid
Name: Amygdalinic acid
Name: Paramandelic acid
Name: Uromaline
Class: CLASS1 Other
Class: CLASS2 Carboxylic acid
Class: CLASS3 Mandelic acid
Formula: C8H8O3
Exact mass: 152.047
SMILES: C1=CC=C(C=C1)C(C(=O)O)O
InChI: 2-hydroxy-2-phenylacetic acid
Instrument: TQD, Waters
Ion type: [M+H]+
Precursor m/z: 152.16
m/z	relative intensity
90	221
110	167
111	999
