Mass spectrum: Kynurenic acid; MS2; QqQ; positive; CE 20 V
Name: Kynurenic acid
Name: Kynurenate
Name: Kynurensaeure
Name: Quinurenic acid
Name: 4-Hydroxyquinaldinic acid
Name: 4-Hydroxyquinaldic acid
Name: 4-Hydroxyquinoline-2-carboxylic acid
Class: CLASS1 Other
Class: CLASS2 Carboxylic acid
Class: CLASS3 Kynurenic acid
Formula: C10H7NO3
Exact mass: 189.042
SMILES: C1=CC=C2C(=C1)C(=O)C=C(N2)C(=O)O
InChI: 4-oxo-1H-quinoline-2-carboxylic acid
Instrument: TQD, Waters
Ion type: [M+H]+
Precursor m/z: 190.17
m/z	relative intensity
143	118
144	999
162	32
171	95
172	499
188	34
189	272
190	933
