Mass spectrum: Indole-3-carboxylic acid; MS2; QqQ; negative; CE 20 V
Name: Indole-3-carboxylic acid
Name: 3-Indolylcarboxylic Acid
Name: 3-Indoleformic Acid
Class: CLASS1 Alkaloid
Class: CLASS2 Indole
Class: CLASS3 Indole
Formula: C9H7NO2
Exact mass: 161.047
SMILES: C1=CC=C2C(=C1)C(=CN2)C(=O)O
InChI: 1H-indole-3-carboxylic acid
Instrument: TQD, Waters
Ion type: [M-H]-
Precursor m/z: 160.13
m/z	relative intensity
115	42
116	999
160	89
