Mass spectrum: 1-Methylnicotinamide chloride; MS2; QqQ; positive; CE 20 V
Name: 1-Methylnicotinamide chloride
Name: N-Methylnicotinic acid amide
Name: 3-Carbamoyl-1-methylpyridinium
Name: Nicotinamide methiodide
Class: CLASS1 Other
Class: CLASS2 Vitamin
Formula: C7H9N2O
Exact mass: 137.071
SMILES: C[N+]1=CC=CC(=C1)C(=O)N
InChI: 1-methylpyridin-1-ium-3-carboxamide
Instrument: TQD, Waters
Ion type: [M+H]+
Precursor m/z: 137.13
m/z	relative intensity
94	84
136	211
137	999
