Mass spectrum: 1-Isothiocyanato-7-(methylsulfinyl)-heptane; MS2; QqQ; positive; CE 20 V
Name: 1-Isothiocyanato-7-(methylsulfinyl)-heptane
Name: 7-Methylsulfinylheptyl isothiocyanate
Class: CLASS1 Other
Class: CLASS2 Isothiocyanate
Formula: C9H17NOS2
Exact mass: 219.075
SMILES: no data
InChI: no data
Instrument: TQD, Waters
Ion type: [M+H]+
Precursor m/z: 220.24
m/z	relative intensity
54	189
55	717
65	59
69	134
70	30
95	78
96	86
97	426
112	37
114	31
122	67
123	348
147	87
155	63
156	859
218	34
219	331
220	999
