Mass spectrum: N-Acetyl-DL-glutamic acid; MS2; QqQ; positive; CE 10 V
Name: N-Acetyl-DL-glutamic acid
Name: Ac-Glu
Name: N-Acetyl-DL-glutamate
Name: N-Acetylglutamate
Name: 2-(Acetylamino)pentanedioic Acid
Class: CLASS1 Amino acid
Class: CLASS2 Glutamic acid
Formula: C7H11NO5
Exact mass: 189.063
SMILES: CC(=O)NC(CCC(=O)O)C(=O)O
InChI: (2S)-2-acetamidopentanedioic acid
Instrument: TQD, Waters
Ion type: [M+H]+
Precursor m/z: 190.21
m/z	relative intensity
129	76
130	371
148	65
171	32
172	332
189	98
190	999
