Mass spectrum: N-Tigloylglycine; MS2; QqQ; positive; CE 30 V
Name: N-Tigloylglycine
Name: Tiglylglycine
Class: CLASS1 Amino acid
Class: CLASS2 Glycine
Formula: C7H11NO3
Exact mass: 157.073
SMILES: CC=C(C)C(=O)NCC(=O)O
InChI: 2-[[(E)-2-methylbut-2-enoyl]amino]acetic acid
Instrument: TQD, Waters
Ion type: [M+H]+
Precursor m/z: 158.16
m/z	relative intensity
54	243
55	999
82	68
83	411
