Mass spectrum: Phenaceturic acid; MS2; QqQ; positive; CE 40 V
Name: Phenaceturic acid
Name: Phenyl-Ac-Gly
Name: Phenylacetylglycine
Name: Phenylacetoamidoacetic Acid
Name: N-Phenacetylglycine
Class: CLASS1 Amino acid
Class: CLASS2 Glycine
Formula: C10H11NO3
Exact mass: 193.073
SMILES: C1=CC=C(C=C1)CC(=O)NCC(=O)O
InChI: 2-[(2-phenylacetyl)amino]acetic acid
Instrument: TQD, Waters
Ion type: [M+H]+
Precursor m/z: 194.21
m/z	relative intensity
29	33
30	82
75	45
76	97
89	30
90	227
91	999
