Mass spectrum: D-Pantothenic acid hemicalcium salt; MS2; QqQ; positive; CE 30 V
Name: D-Pantothenic acid hemicalcium salt
Name: Vitamin B5
Name: D-Pantothenic Acid
Name: (R)-Pantothenate
Name: (R)-(+)-N-(2,4-Dihydroxy-3,3-dimethyl-1-oxobutyl)-beta-alanine
Class: CLASS1 Other
Class: CLASS2 Vitamin
Formula: C9H17NO5
Exact mass: 219.11
SMILES: CC(C)(CO)C(C(=O)NCCC(=O)O)O
InChI: 3-[[(2R)-2,4-dihydroxy-3,3-dimethylbutanoyl]amino]propanoic acid
Instrument: TQD, Waters
Ion type: [M+H]+
Precursor m/z: 220.29
m/z	relative intensity
29	64
30	204
42	30
43	310
45	43
56	40
57	110
59	71
69	60
71	47
72	296
73	34
74	33
85	160
87	35
89	236
90	999
95	56
97	38
98	166
103	90
124	68
202	48
220	48
