Mass spectrum: 1-Isothiocyanato-9-(methylsulfinyl)-nonane; MS2; QqQ; positive; CE 20 V
Name: 1-Isothiocyanato-9-(methylsulfinyl)-nonane
Name: 9-Methylsulfinylnonnyl isothiocyanate
Class: CLASS1 Other
Class: CLASS2 Isothiocyanate
Formula: C11H21NOS2
Exact mass: 247.106
SMILES: no data
InChI: no data
Instrument: TQD, Waters
Ion type: [M+H]+
Precursor m/z: 248.3
m/z	relative intensity
57	35
65	34
69	254
83	169
114	56
151	39
175	53
183	36
184	439
246	34
247	110
248	999
