Mass spectrum: Adenosine; MS2; QqQ; positive; CE 50 V
Name: Adenosine
Name: 9-beta-D-Ribofuranosyladenine
Name: Adenine riboside
Name: Sandesin
Name: Boniton
Name: Myocol
Name: Nucleocardyl  
Class: CLASS1 Other
Class: CLASS2 Nucleoside
Class: CLASS3 Adenosine
Formula: C10H13N5O4
Exact mass: 267.096
SMILES: C1=NC2=C(C(=N1)N)N=CN2C3C(C(C(O3)CO)O)O
InChI: (2R,3R,4S,5R)-2-(6-aminopurin-9-yl)-5-(hydroxymethyl)oxolane-3,4-diol
Instrument: TQD, Waters
Ion type: [M+H]+
Precursor m/z: 268.3
m/z	relative intensity
57	79
68	47
116	52
135	52
136	999
137	92
