Mass spectrum: glucocerebrosides; MS2; QqQ; positive; CE 40 V
Name: glucocerebrosides
Name: Glucosyl (E,E)N(2-hydroxyhexadecanoyl)sphing-4,8-dienine
Class: CLASS1 Other
Class: CLASS2 Phospholipid
Class: CLASS3 Cerebroside
Formula: -
Exact mass: 0
SMILES: no data
InChI: no data
Instrument: TQD, Waters
Ion type: [M+H]+
Precursor m/z: 715.04
m/z	relative intensity
233	46
250	33
262	999
263	268
504	34
516	405
517	129
518	32
534	186
535	85
698	102
