Mass spectrum: Heptadecane; MS2; QqQ; positive; CE 10 V
Name: Heptadecane
Name: Alkane C17
Name: n-Heptadecane
Class: CLASS1 Other
Class: CLASS2 Alkane
Formula: C17H36
Exact mass: 240.281
SMILES: CCCCCCCCCCCCCCCCC
InChI: heptadecane
Instrument: TQD, Waters
Ion type: [M+H]+
Precursor m/z: 241.25
m/z	relative intensity
223	999
