Mass spectrum: glucocerebrosides; MS2; QqQ; positive; CE 20 V
Name: glucocerebrosides
Name: Glucosyl (E,E)N(2-hydroxyhexadecanoyl)sphing-4,8-dienine
Class: CLASS1 Other
Class: CLASS2 Phospholipid
Class: CLASS3 Cerebroside
Formula: -
Exact mass: 52674389.901
SMILES: no data
InChI: no data
Instrument: TQD, Waters
Ion type: [M+H]+
Precursor m/z: 715.04
m/z	relative intensity
517	48
534	372
535	422
695	160
696	960
697	999
698	748
715	70
