Mass spectrum: Kaempferol-3-O-alpha-L-rhamnopyranosyl(1-2)-beta-D-glucopyranoside-7-O-alpha-L-rhamnopyranoside; MS2; QqQ; positive; CE 30 V
Name: Kaempferol-3-O-alpha-L-rhamnopyranosyl(1-2)-beta-D-glucopyranoside-7-O-alpha-L-rhamnopyranoside
Name: kaem-3-(Rha-Glu)-7-Rha
Name: kaempferol-3-neohesperidoside-7-rhamnoside
Class: CLASS1 Flavonoid
Class: CLASS2 Flavonol
Class: CLASS3 Kaempferol glycoside
Formula: C33H40O19
Exact mass: 740.216
SMILES: no data
InChI: no data
Instrument: TQD, Waters
Ion type: [M+H]+
Precursor m/z: 741.67
m/z	relative intensity
85	42
147	174
286	62
287	448
432	155
433	999
434	301
594	43
595	302
596	175
