Mass spectrum: Cyanidin-3-O-alpha-arabinopyranoside; MS2; QqQ; positive; CE 50 V
Name: Cyanidin-3-O-alpha-arabinopyranoside
Name: Cy 3-Ara
Class: CLASS1 Flavonoid
Class: CLASS2 Anthocyanin
Class: CLASS3 Cyanidin glycoside
Formula: C20H19O10
Exact mass: 419.097
SMILES: no data
InChI: no data
Instrument: TQD, Waters
Ion type: [M+H]+
Precursor m/z: 419.39
m/z	relative intensity
284	31
285	138
286	546
287	999
288	113
