Mass spectrum: alpha-L-(-)-Fucose 1-phosphate bis(cyclohexylammonium) salt ; MS2; QqQ; positive; CE 20 V
Name: alpha-L-(-)-Fucose 1-phosphate bis(cyclohexylammonium) salt 
Name: alpha-Fuc-1P
Name: alpha-Fucopyranosyl phosphate
Name: 6-Deoxy-alpha-L-galactose phosphate
Class: CLASS1 Other
Class: CLASS2 Suger phosphate
Class: CLASS3 Galactose phosphate
Formula: C6H13O8P
Exact mass: 244.034
SMILES: CC1C(C(C(C(O1)OP(=O)(O)O)O)O)O
InChI: [(2S,3S,4R,5S,6S)-3,4,5-trihydroxy-6-methyloxan-2-yl] dihydrogen phosphate
Instrument: TQD, Waters
Ion type: [M+H]+
Precursor m/z: 245.24
m/z	relative intensity
71	31
74	34
75	377
85	64
98	152
99	999
101	55
129	144
241	31
