Mass spectrum: O-hexosyl-2''-O-pentosyl-6-C-hexosylluteolin; MS2; QIT; [M-H]-; 0.3->2V
Name: O-hexosyl-2''-O-pentosyl-6-C-hexosylluteolin
Class: CLASS1 Flavonoid
Class: CLASS2 Flavone
Class: CLASS3 Luteolin glycoside
Formula: C32H38O20
Exact mass: 742.20 
Ion type: [M-H]-
Precursor m/z: 741
m/z	relative intensity
621	55
579	100
459	12
429	21
309	7
