Mass spectrum: Spinacetin 3-O-gentiobioside; MS2; QIT; [M-H]-; 0.3->2V
Name: Spinacetin 3-O-gentiobioside
Class: CLASS1 Flavonoid
Class: CLASS2 Flavonol
Class: CLASS3 Spinacetin glycoside
Formula: C29H34O18
Exact mass: 670.17 
Ion type: [M-H]-
Precursor m/z: 669
m/z	relative intensity
345	100
