Mass spectrum: 7-Methylthioheptylglucosinolate; MS2; QIT; [M+H]+; 25
Name: 7-Methylthioheptylglucosinolate
Class: CLASS1 Glucosinolate
Class: CLASS2 Aliphatic glucosinolate
Formula: C15H29N1O9S3
Exact mass: 463.10 
Ion type: [M+H]+
Precursor m/z: 384
m/z	relative intensity
204.087	7
188.114	2
156.085	11
145.056	10
127.039	5
124.112	100
107.087	22
85.03	14
79.056	18
