Mass spectrum: Nicotinoylcholine-hexoside isomer; MS2; QIT; [M+Na]+; 15->55V
Name: Nicotinoylcholine-hexoside isomer
Class: CLASS1 Other
Class: CLASS2 Choline
Formula: C21H23O10
Exact mass: 435.13 
Precursor m/z: 435.13
m/z	relative intensity
435.13	20
273.078	100
