Mass spectrum: Oleacein; MS2; QqQ; [M-H]-; 30V
Name: Oleacein
Class: CLASS1 Other
Class: CLASS2 Carboxylic acid
Class: CLASS3 Hexanoic acid
Formula: C17H20O6
Exact mass: 320.13 
Ion type: [M-H]-
Precursor m/z: 319
m/z	relative intensity
199	100
111	37
153	5
