Mass spectrum: Malonyl-ginsenoside Rb1; MS2; Q-TOF; [M+H]+; 6->10V
Name: Malonyl-ginsenoside Rb1
Name: Ginsenoside mRb1
Class: CLASS1 Terpenoid
Class: CLASS2 Triterpenoid
Class: CLASS3 Ginsenoside
Formula: C57H94O26
Exact mass: 1194.60 
Ion type: [M+H]+
Precursor m/z: 1195.6099
m/z	relative intensity
1108.6008	88
946.5451	14
853.4939	100
835.4861	38
785.0267	5
