Mass spectrum: 5,3'-Dimethoxyluteolin beta-d-glucoside-malonate; MS2; QIT; [M+H]+; 4.0V
Name: 5,3'-Dimethoxyluteolin beta-d-glucoside-malonate
Class: CLASS1 Flavonoid
Class: CLASS2 Flavone
Class: CLASS3 Tricin
Formula: C26H26O14
Exact mass: 562.13 
Ion type: [M+H]+
Precursor m/z: 563.4897
m/z	relative intensity
563	100
315	42
