Mass spectrum: Loroglossin; MS2; QIT; [M+H]+; 35%
Name: Loroglossin
Class: CLASS1 Other
Class: CLASS2 Other
Class: CLASS3 Other
Formula: C34H46O18
Exact mass: 742.27 
Ion type: [M+H]+
Precursor m/z: 765
m/z	relative intensity
229	5
391	20
497	100
553	5
659	25
