Mass spectrum: Corylin; MS2; QIT; [M+H]+; n.d.
Name: Corylin
Class: CLASS1 Flavonoid
Class: CLASS2 Isoflavone
Formula: C20H16O4
Exact mass: 320.10 
Ion type: [M+H]+
Precursor m/z: 321
m/z	relative intensity
343	100
733	5
