Mass spectrum: Protocatechuic acid; MS2; QqQ; [M-H]-; -20
Name: Protocatechuic acid
Class: CLASS1 Other
Class: CLASS2 Benzoic acid
Class: CLASS3 Protocatechoic acid
Formula: C7H6O4
Exact mass: 154.03 
Ion type: [M-H]-
Precursor m/z: 153
m/z	relative intensity
153	35
109	100
