Mass spectrum: Notoginsenoside Fc; MS2; Q-TOF; [M+H]+; 6->10V
Name: Notoginsenoside Fc
Class: CLASS1 Terpenoid
Class: CLASS2 Triterpenoid
Class: CLASS3 Notoginsenoside
Formula: C58H98O26
Exact mass: 1210.63 
Ion type: [M+H]+
Precursor m/z: 1211.645
m/z	relative intensity
1079.6053	64
1049.5936	100
917.5442	34
785.5079	82
623.4542	32
