Mass spectrum: Delphinidin 3-rutinoside; MS2; QIT; [M+H]+; 20->10V
Name: Delphinidin 3-rutinoside
Class: CLASS1 Flavonoid
Class: CLASS2 Anthocyanin
Class: CLASS3 Petunidin glycoside
Formula: C28H33O16Cl1
Exact mass: 625.18 
Ion type: [M+H]+
Precursor m/z: 625
m/z	relative intensity
625	100
479	100
317	100
