Mass spectrum: Trijuganone B; MS2; QIT; [M+H]+; 45%
Name: Trijuganone B
Class: CLASS1 Terpenoid
Class: CLASS2 Diterpenoid
Class: CLASS3 Trijuganone
Formula: C18H16O3
Exact mass: 280.11 
Ion type: [M+H]+
Precursor m/z: 281
m/z	relative intensity
263	100
235	30
221	2
193	1
