Mass spectrum: Kaempferol 3-diglucoside; MS2; QIT; [M-H]-; 100%
Name: Kaempferol 3-diglucoside
Class: CLASS1 Flavonoid
Class: CLASS2 Flavonol
Class: CLASS3 Kaempferol glycoside
Formula: C27H30O16
Exact mass: 610.15 
Ion type: [M-H]-
Precursor m/z: 609
m/z	relative intensity
609	100
429	100
284	100
