Mass spectrum: 17-Decarboxy-isobetanin; MS2; QIT; [M+H]+; 25->30%
Name: 17-Decarboxy-isobetanin
Class: CLASS1 Alkaloid
Class: CLASS2 Betalain
Class: CLASS3 Isobetanin
Formula: C23H26N2O11
Exact mass: 506.15 
Ion type: [M+H]+
Precursor m/z: 507
m/z	relative intensity
345	100
