Mass spectrum: Cyanidin 3-p-hydroxybenzoyl sophoroside-5-glucoside; MS2; QqQ; [M]+; 50%
Name: Cyanidin 3-p-hydroxybenzoyl sophoroside-5-glucoside
Class: CLASS1 Flavonoid
Class: CLASS2 Anthocyanin
Class: CLASS3 Peonidin glycoside
Exact mass: no data
Ion type: [M]+
Precursor m/z: 907
m/z	relative intensity
745	100
463	100
301	100
