Mass spectrum: (6aR, 11aR)-3,4-Dihydroxy-9-methoxypterocarpan; MS2; QIT; [M+H]+; 15->33%
Name: (6aR, 11aR)-3,4-Dihydroxy-9-methoxypterocarpan
Class: CLASS1 Flavonoid
Class: CLASS2 Pterocarpan
Class: CLASS3 Pterocarpan
Formula: C16H14O5
Exact mass: 286.08 
Ion type: [M+H]+
Precursor m/z: 287.4
m/z	relative intensity
272.1	1
269.1	4
259.1	4
179.1	1
177.1	1
163.1	4
161.1	23
139.1	100
137.1	55
