Mass spectrum: Epoxidized soybean oil M5; MS2; QIT; [M+Na]+; 36->37%
Name: Epoxidized soybean oil M5
Class: CLASS1 Other
Class: CLASS2 Other
Class: CLASS3 Other
Formula: C57H106O8
Exact mass: 918.79 
Ion type: [M+Na]+
Precursor m/z: 943
m/z	relative intensity
685	100
630	100
