Mass spectrum: 3'-O-Methyl quercetin; MS2; QIT; [M+H]+; 15->55V
Name: 3'-O-Methyl quercetin
Class: CLASS1 Flavonoid
Class: CLASS2 Flavonol
Class: CLASS3 Isorhamnetin glycoside
Formula: C16H12O7
Exact mass: 316.06 
Ion type: [M+H]+
Precursor m/z: 317
m/z	relative intensity
609.182	84
463.124	100
317.068	20
