Mass spectrum: L-Methionine; MS2; QqQ; [M-H]-; -22
Name: L-Methionine
Class: CLASS1 Amino acid
Class: CLASS2 Methionine
Formula: C5H11N1O2S1
Exact mass: 149.05 
Ion type: [M-H]-
Precursor m/z: 148
m/z	relative intensity
47	100
