Mass spectrum: O-hexosyl-8-C-hexosyl-methylluteolin; MS2; QIT; [M-H]-; 0.3->2V
Name: O-hexosyl-8-C-hexosyl-methylluteolin
Class: CLASS1 Flavonoid
Class: CLASS2 Flavone
Class: CLASS3 Isoscoparin glycoside
Formula: C28H32O16
Exact mass: 624.17 
Ion type: [M-H]-
Precursor m/z: 623
m/z	relative intensity
533	2
503	29
461	21
371	9
341	100
