Mass spectrum: Protocatechuic acid hexoside ; MS2; QIT; [M-H]-; n.d.
Name: Protocatechuic acid hexoside
Class: CLASS1 Other
Class: CLASS2 Benzoic acid
Class: CLASS3 Protocatechoic acid
Formula: C7H6O4
Exact mass: 154.03 
Ion type: [M-H]-
Precursor m/z: 153
m/z	relative intensity
109	100
