Mass spectrum: Sweroside; MS2; QqQ; [M+H]+; n.d.
Name: Sweroside
Class: CLASS1 Terpenoid
Class: CLASS2 Iridoid
Class: CLASS3 Sweroside
Formula: C16H22O9
Exact mass: 358.13 
Ion type: [M+H]+
Precursor m/z: 359
m/z	relative intensity
197	100
