Mass spectrum: Orotidine; MS2; QqQ; [M-H]-; -20
Name: Orotidine
Class: CLASS1 Other
Class: CLASS2 Other
Class: CLASS3 Orotidine
Formula: C10H12N2O8
Exact mass: 288.06 
Ion type: [M-H]-
Precursor m/z: 287
m/z	relative intensity
111	100
42	13
