Mass spectrum: Ginsenoside malonyl-Rb2/Rb3/Rc; MS2; QIT; [M-H]-; 30V
Name: Ginsenoside malonyl-Rb2/Rb3/Rc
Class: CLASS1 Terpenoid
Class: CLASS2 Triterpenoid
Class: CLASS3 Ginsenoside
Formula: C56H92O25
Exact mass: 1164.59 
Ion type: [M-H]-
Precursor m/z: 1163
m/z	relative intensity
1077	95
1059	100
987	20
927	3
915	2
897	1
783	1
765	1
