Mass spectrum: Vindolidine; MS2; QIT; [M+H]+; 0.9V
Name: Vindolidine
Class: CLASS1 Alkaloid
Class: CLASS2 Bisindole
Class: CLASS3 Vindolidine
Formula: C24H30N2O5
Exact mass: 426.22 
Ion type: [M+H]+
Precursor m/z: 427
m/z	relative intensity
427	42
409	6
367	100
158	58
143	6
