Mass spectrum: Capsanthin-palmitate-myristate; MS2; QIT; [M+H]+; 1.0V
Name: Capsanthin-palmitate-myristate
Class: CLASS1 Terpenoid
Class: CLASS2 Carotenoid
Class: CLASS3 Capsanthin
Formula: C70H112O6
Exact mass: 1032.85 
Ion type: [M+H]+
Precursor m/z: 1033
m/z	relative intensity
777	100
805	74
549	16
