Mass spectrum: Taxifolin O-glucoside; MS2; QIT; [M-H]-; 100%
Name: Taxifolin O-glucoside
Class: CLASS1 Flavonoid
Class: CLASS2 Flavanol
Class: CLASS3 Taxifolin glycoside
Formula: C21H22O12
Exact mass: 466.11 
Ion type: [M-H]-
Precursor m/z: 465
m/z	relative intensity
285	100
151	33
339	22
303	11
177	5
257	1
