Mass spectrum: Genkwanin; MS2; QIT; [M-H]-; 45%
Name: Genkwanin
Name: Apigenin-7-methylether
Class: CLASS1 Flavonoid
Class: CLASS2 Flavone
Class: CLASS3 Apigenin glycoside
Formula: C16H12O5
Exact mass: 284.07 
Ion type: [M-H]-
Precursor m/z: 283
m/z	relative intensity
283	5
268	100
151	1
