Mass spectrum: Colupulone; MS2; QIT; [M-H]-; 30V
Name: Colupulone
Class: CLASS1 Other
Class: CLASS2 Phenol
Class: CLASS3 Phloroglucinol
Formula: C25H36O4
Exact mass: 400.26 
Ion type: [M-H]-
Precursor m/z: 399
m/z	relative intensity
287	100
330	23
219	12
275	12
262	9
355	4
194	3
207	100
