Mass spectrum: 2',4,5'-Trihydroxychalcone; MS2; QIT; [M-H]-; 5->10%
Name: 2',4,5'-Trihydroxychalcone
Class: CLASS1 Flavonoid
Class: CLASS2 Chalcone
Class: CLASS3 Chalcone
Formula: C15H12O4
Exact mass: 256.07 
Ion type: [M-H]-
Precursor m/z: 255
m/z	relative intensity
255	7
211	7
119	11
135	100
125	3
107	10
