Mass spectrum: 1b-Hydroxy-2'-desacetoxy austrospicatine; MS2; QqQ; [M+H]+; 25V
Name: 1b-Hydroxy-2'-desacetoxy austrospicatine
Class: CLASS1 Terpenoid
Class: CLASS2 Diterpenoid
Class: CLASS3 Austrospicatine
Exact mass: no data
Ion type: [M+H]+
Precursor m/z: 712
m/z	relative intensity
134	23
194	100
239	12
261	20
279	14
297	15
369	5
592	5
652	7
