Mass spectrum: 2-Deacetoxy taxinine J; MS2; QqQ; [M+H]+; 25V
Name: 2-Deacetoxy taxinine J
Class: CLASS1 Terpenoid
Class: CLASS2 Diterpenoid
Class: CLASS3 Taxinine
Formula: C37H46O10
Exact mass: 650.31 
Ion type: [M+H]+
Precursor m/z: 651
m/z	relative intensity
131	38
185	40
263	77
281	100
299	53
341	58
401	61
443	20
591	17
