Mass spectrum: Octopamine; MS2; QqQ; [M+H]+; n.d.
Name: Octopamine
Class: CLASS1 Alkaloid
Class: CLASS2 Phenylethylamine
Class: CLASS3 Octopamine
Formula: C8H11N1O2
Exact mass: 153.08 
Ion type: [M+H]+
Precursor m/z: 154
m/z	relative intensity
136	100
119	100
109	100
107	100
91	100
