Mass spectrum: 10-OH-Aconitine; MS2; QIT; [M+H]+; 25->42%
Name: 10-OH-Aconitine
Class: CLASS1 Alkaloid
Class: CLASS2 Diterpene
Class: CLASS3 Aconitine
Formula: C34H47N1O12
Exact mass: 661.31 
Ion type: [M+H]+
Precursor m/z: 662
m/z	relative intensity
570	6
602	100
612	6
630	6
662	62
