Mass spectrum: Kaempferol 3-O-rutinoside; MS2; QqQ; [M-H]-; 35V
Name: Kaempferol 3-O-rutinoside
Class: CLASS1 Flavonoid
Class: CLASS2 Flavonol
Class: CLASS3 Kaempferol glycoside
Formula: C27H30O15
Exact mass: 594.16 
Ion type: [M-H]-
Precursor m/z: 593
m/z	relative intensity
285	100
255	100
227	100
