Mass spectrum: Kaempferol; MS2; QqQ; [M-H]-; 35V
Name: Kaempferol
Class: CLASS1 Flavonoid
Class: CLASS2 Flavonol
Class: CLASS3 Kaempferol glycoside
Formula: C15H10O6
Exact mass: 286.05 
Ion type: [M-H]-
Precursor m/z: 285
m/z	relative intensity
257	100
229	100
216	100
