Mass spectrum: 1,2'-Disinapoyl-2-feruloyldiglucoside; MS2; QIT; [M-H]-; 100%
Name: 1,2'-Disinapoyl-2-feruloyldiglucoside
Class: CLASS1 Phenylpropanoid
Class: CLASS2 Phenylpropanoid glycoside
Class: CLASS3 Other
Formula: C44H50O22
Exact mass: 930.28 
Ion type: [M-H]-
Precursor m/z: 930
m/z	relative intensity
930	100
706	100
482	100
