Mass spectrum: Biochanin A 7-O-beta-d-glucoside; MS2; QIT; [M+H]+; 4.0V
Name: Biochanin A 7-O-beta-d-glucoside
Name: Biochanin 7-O-glucoside
Class: CLASS1 Flavonoid
Class: CLASS2 Isoflavone
Class: CLASS3 Biochanin glycoside
Formula: C22H22O10
Exact mass: 446.12 
Ion type: [M+H]+
Precursor m/z: 447.4722
m/z	relative intensity
447	35
285	100
