Mass spectrum: Taurine; MS2; QqQ; [M+H]+; 16
Name: Taurine
Class: CLASS1 Other
Class: CLASS2 Other
Class: CLASS3 Taurine
Formula: C2H7N1O3S1
Exact mass: 125.01 
Ion type: [M+H]+
Precursor m/z: 126
m/z	relative intensity
108	100
44	29
