Mass spectrum: L-Glutamine; MS2; QqQ; [M+H]+; 20
Name: L-Glutamine
Class: CLASS1 Amino acid
Class: CLASS2 Glutamine
Formula: C5H10N2O3
Exact mass: 146.07 
Ion type: [M+H]+
Precursor m/z: 147
m/z	relative intensity
130	100
101	8
84	100
56	15
