Mass spectrum: Norepinephrine; MS2; QqQ; [M+H]+; 10->40V
Name: Norepinephrine
Class: CLASS1 Alkaloid
Class: CLASS2 Phenylethylamine
Class: CLASS3 Norepinephrine
Formula: C8H11N1O3
Exact mass: 169.07 
Ion type: [M+H]+
Precursor m/z: 170
m/z	relative intensity
170	100
152	100
135	100
134	100
107	100
106	100
