Mass spectrum: Sativanone; MS2; QIT; [M-H]-; 30->34%
Name: Sativanone
Class: CLASS1 Flavonoid
Class: CLASS2 Flavone
Class: CLASS3 Sativanone
Formula: C17H16O5
Exact mass: 300.10 
Ion type: [M-H]-
Precursor m/z: 299
m/z	relative intensity
299	100
284	100
269	100
161	100
135	100
91	100
