Mass spectrum: Vindoline; MS2; QIT; [M+H]+; 0.9V
Name: Vindoline
Class: CLASS1 Alkaloid
Class: CLASS2 Bisindole
Class: CLASS3 Vindoline
Formula: C25H32N2O6
Exact mass: 456.23 
Ion type: [M+H]+
Precursor m/z: 457
m/z	relative intensity
457	57
439	7
397	100
188	44
