Mass spectrum: Humulol; MS2; QIT; [M+H]+; 30V
Name: Humulol
Class: CLASS1 Other
Class: CLASS2 Phenol
Class: CLASS3 Phloroglucinol
Formula: C15H26O1
Exact mass: 222.20 
Ion type: [M+H]+
Precursor m/z: 223
m/z	relative intensity
167	100
207	33
189	1
155	1
