Mass spectrum: Apigenin-7-O-rutinoside; MS2; QqQ; [M-H]-; -40
Name: Apigenin-7-O-rutinoside
Class: CLASS1 Flavonoid
Class: CLASS2 Flavone
Class: CLASS3 Apigenin glycoside
Formula: C27H30O14
Exact mass: 578.16 
Ion type: [M-H]-
Precursor m/z: 577
m/z	relative intensity
577	20
269	100
