Mass spectrum: Ginsenoside Rd; MS2; Q-TOF; [M+H]+; 6->10V
Name: Ginsenoside Rd
Name: Gypenoside VIII
Class: CLASS1 Terpenoid
Class: CLASS2 Triterpenoid
Class: CLASS3 Ginsenoside
Formula: C48H82O18
Exact mass: 946.55 
Ion type: [M+H]+
Precursor m/z: 947.5557
m/z	relative intensity
929.5521	43
785.5032	100
767.5037	9
623.4514	76
461.3921	57
