Mass spectrum: Qurcetin-3-sophorotrioside-7-sophoroside; MS2; QIT; [M-H]-; 0.3->2V
Name: Qurcetin-3-sophorotrioside-7-sophoroside
Class: CLASS1 Flavonoid
Class: CLASS2 Flavonol
Class: CLASS3 Quercetin glycoside
Formula: C45H60O32
Exact mass: 1112.31 
Ion type: [M-H]-
Precursor m/z: 1111
m/z	relative intensity
787	100
667	100
625	22
463	16
445	83
301	68
