Mass spectrum: Ganoderic acid J; MS2; QIT; [M-H]-; 30->50%
Name: Ganoderic acid J
Class: CLASS1 Terpenoid
Class: CLASS2 Triterpenoid
Class: CLASS3 Ganoderic acid
Formula: C30H42O7
Exact mass: 514.29 
Ion type: [M-H]-
Precursor m/z: 513
m/z	relative intensity
513	100
451	100
437	28
422	21
301	1
285	1
