Mass spectrum: Hispidol 4'-O-beta-d- glucoside; MS2; QIT; [M+H]+; 4.0V
Name: Hispidol 4'-O-beta-d- glucoside
Class: CLASS1 Phenylpropanoid
Class: CLASS2 Aurone
Formula: C21H20O9
Exact mass: 416.11 
Ion type: [M+H]+
Precursor m/z: 417.1605
m/z	relative intensity
417	22
255	100
