Mass spectrum: 7,2''-O-Diglucosyl-6-C-arabinosylapigenin; MS2; QIT; [M-H]-; 0.3->2V
Name: 7,2''-O-Diglucosyl-6-C-arabinosylapigenin
Class: CLASS1 Flavonoid
Class: CLASS2 Flavone
Class: CLASS3 Apigenin glycoside
Formula: C32H38O19
Exact mass: 726.20 
Ion type: [M-H]-
Precursor m/z: 725
m/z	relative intensity
563	100
383	7
293	1
