Mass spectrum: Epicatechin; MS2; QqQ; [M-H]-; -20
Name: Epicatechin
Class: CLASS1 Flavonoid
Class: CLASS2 Flavanol
Class: CLASS3 Epicatechin
Formula: C15H14O6
Exact mass: 290.08 
Ion type: [M-H]-
Precursor m/z: 289
m/z	relative intensity
289	40
245	100
