Mass spectrum: D-Aminolevulinic acid; MS2; QqQ; [M+H]+; 14
Name: D-Aminolevulinic acid
Class: CLASS1 Amino acid
Class: CLASS2 Aminolevulinic acid
Formula: C5H9N1O3
Exact mass: 131.06 
Ion type: [M+H]+
Precursor m/z: 132
m/z	relative intensity
114	100
86	63
68	13
55	26
73	5
53	5
