Mass spectrum: Herbacetin 7-O-rhamnose; MS2; QqQ; [M-H]-; 30V
Name: Herbacetin 7-O-rhamnose
Class: CLASS1 Terpenoid
Class: CLASS2 Triterpenoid
Class: CLASS3 Hederagenin glycoside
Formula: C21H20O11
Exact mass: 448.10 
Ion type: [M-H]-
Precursor m/z: 448
m/z	relative intensity
447	100
300	100
301	20
