Mass spectrum: Zeaxanthin-laurate-palmitate; MS2; QIT; [M+H]+; 1.0V
Name: Zeaxanthin-laurate-palmitate
Class: CLASS1 Terpenoid
Class: CLASS2 Carotenoid
Class: CLASS3 Zeaxanthin
Formula: C68H108O4
Exact mass: 988.82 
Ion type: [M+H]+
Precursor m/z: 989
m/z	relative intensity
733	100
789	45
533	35
788	32
696	16
