Mass spectrum: Escin Ia and Ib; MS2; LIT; [M+Na]+; n.d.
Name: Escin Ia and Ib
Class: CLASS1 Terpenoid
Class: CLASS2 Triterpenoid
Class: CLASS3 Escin
Formula: C55H86O24
Exact mass: 1130.55 
Ion type: [M+Na]+
Precursor m/z: 1153.2
m/z	relative intensity
1153.2	35
991.3	15
653.3	30
553.3	10
541	5
523	100
505	8
361.1	5
281.1	5
