Mass spectrum: Chrysoeriol-6-C-glucoside-8-C-arabinoside; MS2; QIT; [M-H]-; 0.3->2V
Name: Chrysoeriol-6-C-glucoside-8-C-arabinoside
Class: CLASS1 Flavonoid
Class: CLASS2 Flavone
Class: CLASS3 Chrysoeriol glycoside
Formula: C27H30O15
Exact mass: 594.16 
Ion type: [M-H]-
Precursor m/z: 593
m/z	relative intensity
533	3
503	54
473	70
413	52
383	100
