Mass spectrum: Notoginsenoside R1; MS2; Q-TOF; [M+H]+; 6->10V
Name: Notoginsenoside R1
Name: Sanchinoside R1
Class: CLASS1 Terpenoid
Class: CLASS2 Triterpenoid
Class: CLASS3 Notoginsenoside
Formula: C47H80O18
Exact mass: 932.53 
Ion type: [M+H]+
Precursor m/z: 933.5434
m/z	relative intensity
801.5051	60
771.4913	100
639.4431	49
621.4483	60
477.7496	37
