Mass spectrum: Caffeoylquinic acid; MS2; QIT; [M+H]+; n.d.
Name: Caffeoylquinic acid
Class: CLASS1 Phenylpropanoid
Class: CLASS2 Phenylpropanoid ester
Class: CLASS3 Quinic acid
Formula: C16H18O9
Exact mass: 354.10 
Ion type: [M+H]+
Precursor m/z: 355
m/z	relative intensity
355	2
163	100
