Mass spectrum: 1,3-di-O-Caffeoylquinic acid; MS2; QqQ; [M-H]-; 35V
Name: 1,3-di-O-Caffeoylquinic acid
Class: CLASS1 Phenylpropanoid
Class: CLASS3 Quinic acid
Formula: C25H24O12
Exact mass: 516.13 
Ion type: [M-H]-
Precursor m/z: 515
m/z	relative intensity
353	100
191	100
179	100
