Mass spectrum: (3R)-4'-Methoxy-2',3,7-trihydroxyisoflavanone; MS2; QIT; [M-H]-; 30->34%
Name: (3R)-4'-Methoxy-2',3,7-trihydroxyisoflavanone
Class: CLASS1 Flavonoid
Class: CLASS2 Isoflavanone
Class: CLASS3 Isoflavanone
Formula: C16H14O6
Exact mass: 302.08 
Ion type: [M-H]-
Precursor m/z: 301
m/z	relative intensity
301	100
283	100
177	100
