Mass spectrum: 1,2-Didehydrotanshinone V; MS2; QIT; [M+H]+; 45%
Name: 1,2-Didehydrotanshinone V
Class: CLASS1 Terpenoid
Class: CLASS2 Diterpenoid
Class: CLASS3 Tanshinone
Formula: C19H20O4
Exact mass: 312.14 
Ion type: [M+H]+
Precursor m/z: 313
m/z	relative intensity
295	100
267	65
