Mass spectrum: 6''-O-Hexosyl-6-C-hexosylluteolin; MS2; QIT; [M-H]-; 0.3->2V
Name: 6''-O-Hexosyl-6-C-hexosylluteolin
Class: CLASS1 Flavonoid
Class: CLASS2 Flavone
Class: CLASS3 Luteolin glycoside
Formula: C27H30O16
Exact mass: 610.15 
Ion type: [M-H]-
Precursor m/z: 609
m/z	relative intensity
357	100
339	4
327	80
