Mass spectrum: Chrysoeriol 6-C-hexoside-8-C-pentoside; MS2; QIT; [M-H]-; 25->30%
Name: Chrysoeriol 6-C-hexoside-8-C-pentoside
Class: CLASS1 Flavonoid
Class: CLASS2 Flavone
Class: CLASS3 Chrysoeriol glycoside
Formula: C27H30O15
Exact mass: 594.16 
Ion type: [M-H]-
Precursor m/z: 593
m/z	relative intensity
575	11
533	21
503	34
473	82
413	55
383	100
