Mass spectrum: Notoginsenoside A; MS2; Q-TOF; [M+H]+; 6->10V
Name: Notoginsenoside A
Class: CLASS1 Terpenoid
Class: CLASS2 Triterpenoid
Class: CLASS3 Notoginsenoside
Formula: C54H92O24
Exact mass: 1124.60 
Ion type: [M+H]+
Precursor m/z: 1125.6032
m/z	relative intensity
963.5538	78
801.4965	58
783.4942	100
477.3932	25
