Mass spectrum: Rosmarinic acid; MS2; QqQ; [M-H]-; 35
Name: Rosmarinic acid
Class: CLASS1 Phenylpropanoid
Class: CLASS2 Phenylpropanoid ester
Class: CLASS3 Rosmarinic acid
Formula: C18H16O8
Exact mass: 360.08 
Ion type: [M-H]-
Precursor m/z: 359
m/z	relative intensity
359	22
315	2
223	2
197	50
161	100
135	3
