Mass spectrum: Vincristine; MS2; QIT; [M+H]+; 0.9V
Name: Vincristine
Class: CLASS1 Alkaloid
Class: CLASS2 Bisindole
Class: CLASS3 Vincristine
Formula: C46H56N4O10
Exact mass: 824.40 
Ion type: [M+H]+
Precursor m/z: 825
m/z	relative intensity
825	39
807	100
765	43
747	13
723	6
705	15
687	7
