Mass spectrum: (epi)Catechin-(epi)catechin-(epi)catechin; MS2; QIT; [M+H]+; 20->25V
Name: (epi)Catechin-(epi)catechin-(epi)catechin
Class: CLASS1 Tannin
Class: CLASS2 Proanthocyanidin
Formula: C45H38O18
Exact mass: 866.21 
Ion type: [M+H]+
Precursor m/z: 867
m/z	relative intensity
579	100
427	100
301	100
741	100
451	100
589	100
601	100
