Mass spectrum: Glutathione (reduced from); MS2; QqQ; [M-H]-; -24
Name: Glutathione (reduced from)
Class: CLASS1 Amino acid
Class: CLASS2 Peptide
Class: CLASS3 Oligo peptide
Formula: C18H8N3O6S1
Exact mass: 307.32 
Ion type: [M-H]-
Precursor m/z: 306
m/z	relative intensity
143	100
128	62
99	28
160	25
179	24
74	15
58	14
87	13
42	10
