Mass spectrum: L-Histidine; MS2; QqQ; [M+H]+; 18
Name: L-Histidine
Class: CLASS1 Amino acid
Class: CLASS2 Histidine
Formula: C6H9N3O2
Exact mass: 155.07 
Ion type: [M+H]+
Precursor m/z: 156
m/z	relative intensity
110	100
93	21
83	30
82	13
56	13
81	10
