Mass spectrum: 3-Hydroxy-L-kynurenine; MS2; QqQ; [M+H]+; 14
Name: 3-Hydroxy-L-kynurenine
Class: CLASS1 Amino acid
Class: CLASS2 Kynurenine
Formula: C10H12N2O4
Exact mass: 224.08 
Ion type: [M+H]+
Precursor m/z: 225
m/z	relative intensity
208	100
162	24
110	32
166	15
152	11
190	10
136	10
