Mass spectrum: Sanguiin H6-like ellagitannin; MS2; QIT; [M-H]-; 45%
Name: Sanguiin H6-like ellagitannin
Class: CLASS1 Tannin
Class: CLASS2 Ellagitannin
Class: CLASS3 Sanguiin
Formula: C84H54O52
Exact mass: 1894.16 
Ion type: [M-H]-
Precursor m/z: 1102.3
m/z	relative intensity
1102.3	100
933	100
633	100
