Mass spectrum: 5'-Methoxy-demethylpiperitol-4-O-glucoside; MS2; QIT; [M-H]-; 35%
Name: 5'-Methoxy-demethylpiperitol-4-O-glucoside
Class: CLASS1 Other
Class: CLASS2 Other
Class: CLASS3 Other
Formula: C26H30O12
Exact mass: 534.17 
Ion type: [M-H]-
Precursor m/z: 533
m/z	relative intensity
371	100
