Mass spectrum: beta-Cryptoxanthin-palmitate; MS2; QIT; [M+H]+; 1.0V
Name: beta-Cryptoxanthin-palmitate
Class: CLASS1 Terpenoid
Class: CLASS2 Carotenoid
Class: CLASS3 Cryptoxanthin
Formula: C56H86O2
Exact mass: 790.66 
Ion type: [M+H]+
Precursor m/z: 791
m/z	relative intensity
535	100
549	17
442	8
699	8
