Mass spectrum: L-a-Aminoadipic acid; MS2; QqQ; [M+H]+; 24
Name: L-a-Aminoadipic acid
Class: CLASS1 Amino acid
Class: CLASS2 Aminoadipic acid
Formula: C6H11N1O4
Exact mass: 161.07 
Ion type: [M+H]+
Precursor m/z: 162
m/z	relative intensity
144	51
116	41
98	100
55	33
56	25
70	16
