Mass spectrum: Formononetin 7-O-beta-d-glucoside-6''-O-malonate; MS2; QIT; [M+H]+; 4.0V
Name: Formononetin 7-O-beta-d-glucoside-6''-O-malonate
Class: CLASS1 Flavonoid
Class: CLASS2 Isoflavone
Class: CLASS3 Formononetin glycoside
Formula: C25H24O12
Exact mass: 516.13 
Ion type: [M+H]+
Precursor m/z: 517.4535
m/z	relative intensity
517	35
269	100
