Mass spectrum: Gly-Trp-OMe; MS2; QIT; [M+H]+; 35%
Name: Gly-Trp-OMe
Class: CLASS1 Amino acid
Class: CLASS2 Peptide
Class: CLASS3 Oligo peptide
Formula: C14H17N3O3
Exact mass: 275.13 
Ion type: [M+H]+
Precursor m/z: 276
m/z	relative intensity
259	1
258	55
244	100
216	14
219	38
202	6
