Mass spectrum: Ellagitannin; MS2; QIT; [M-H]-; 45%
Name: Ellagitannin
Class: CLASS1 Tannin
Class: CLASS2 Ellagitannin 
Class: CLASS3 Ellagitannin 
Formula: C44H32O27
Exact mass: 992.11 
Ion type: [M-H]-
Precursor m/z: 897.8
m/z	relative intensity
897.8	100
633	100
301.3	100
