Mass spectrum: 8-Methylsulphinyloctylglucosinolate; MS2; QIT; [M+H]+; 25
Name: 8-Methylsulphinyloctylglucosinolate
Class: CLASS1 Glucosinolate
Class: CLASS2 Aliphatic glucosinolate
Exact mass: no data
Ion type: [M+H]+
Precursor m/z: 414
m/z	relative intensity
252.109	85
234.095	3
218.123	1
202.124	10
185.123	42
184.115	100
170.1	16
145.049	6
138.128	77
136.122	25
134.096	13
127.039	2
110.097	8
96.081	15
85.029	5
