Mass spectrum: Hesperidin; MS2; QIT; [M+H]+; 35%
Name: Hesperidin
Class: CLASS1 Flavonoid
Class: CLASS2 Flavanone
Class: CLASS3 Hesperidin
Formula: C28H34O15
Exact mass: 610.19 
Ion type: [M+H]+
Precursor m/z: 611
m/z	relative intensity
593	13
575	14
557	15
489	14
465	37
449	100
447	24
431	19
413	5
345	7
303	19
