Mass spectrum: Ginsenoside Rc; MS2; Q-TOF; [M+H]+; 6->10V
Name: Ginsenoside Rc
Name: Panaxoside Rc
Class: CLASS1 Terpenoid
Class: CLASS2 Triterpenoid
Class: CLASS3 Ginsenoside
Formula: C53H90O22
Exact mass: 1078.59 
Ion type: [M+H]+
Precursor m/z: 1079.6027
m/z	relative intensity
947.5633	38
911.5621	82
785.5124	17
767.4987	100
623.4592	15
