Mass spectrum: Ganoderic acid B; MS2; QIT; [M-H]-; 30->50%
Name: Ganoderic acid B
Class: CLASS1 Terpenoid
Class: CLASS2 Triterpenoid
Class: CLASS3 Ganoderic acid
Formula: C30H44O7
Exact mass: 516.31 
Ion type: [M-H]-
Precursor m/z: 515
m/z	relative intensity
497	100
453	100
439	8
304	30
288	6
250	13
