Mass spectrum: Lucidenic acid F; MS2; QIT; [M-H]-; 30->50%
Name: Lucidenic acid F
Class: CLASS1 Terpenoid
Class: CLASS2 Triterpenoid
Class: CLASS3 Lucidenic acid 
Formula: C27H36O6
Exact mass: 456.25 
Ion type: [M-H]-
Precursor m/z: 455
m/z	relative intensity
455	100
437	84
425	14
419	56
411	53
395	100
393	22
383	35
380	39
377	10
339	9
301	55
247	52
245	36
209	12
207	7
163	32
149	9
