Mass spectrum: Rhamnosyl dihexosyl methyl quercetin; MS2; QqQ; [M+H]+; 30->60V
Name: Rhamnosyl dihexosyl methyl quercetin
Class: CLASS1 Flavonoid
Class: CLASS2 Flavonol
Class: CLASS3 Quercetin glycoside
Formula: C34H42O21
Exact mass: 786.22 
Ion type: [M+H]+
Precursor m/z: 787
m/z	relative intensity
641	100
479	100
317	100
