Mass spectrum: Ginsenoside Rb1; MS2; QIT; [M-H]-; 30V
Name: Ginsenoside Rb1
Class: CLASS1 Terpenoid
Class: CLASS2 Triterpenoid
Class: CLASS3 Ginsenoside
Formula: C54H92O23
Exact mass: 1108.60 
Ion type: [M-H]-
Precursor m/z: 1107
m/z	relative intensity
945	100
783	7
621	5
459	3
