Mass spectrum: Cyanidin 3-glucoside 5-glucoside; MS2; TOF; [M]+; 400V
Name: Cyanidin 3-glucoside 5-glucoside
Name: cyanin
Class: CLASS1 Terpenoid
Class: CLASS2 Diterpenoid
Class: CLASS3 Cryptotanshinone
Formula: C27H31O16
Exact mass: 611.16 
Ion type: [M]+
Precursor m/z: 611
m/z	relative intensity
477	100
449	100
329	100
315	100
299	100
287	100
286	100
137	100
150	100
109	100
121	100
