Mass spectrum: Oxindolylalanine; MS2; QIT; [M+H]+; 35%
Name: Oxindolylalanine
Class: CLASS1 Alkaloid
Class: CLASS2 Indole
Class: CLASS3 Oxindolylalanine
Formula: C11H12N2O3
Exact mass: 220.08 
Ion type: [M+H]+
Precursor m/z: 221
m/z	relative intensity
204	6
203	3
175	100
186	1
