Mass spectrum: Kaempferol 3-O-(p-coumaroyl)triglucoside-7-O-glucoside; MS2; QIT; [M-H]-; 0.3->2V
Name: Kaempferol 3-O-(p-coumaroyl)triglucoside-7-O-glucoside
Class: CLASS1 Flavonoid
Class: CLASS2 Flavonol
Class: CLASS3 Kaempferol glycoside
Formula: C48H56O28
Exact mass: 1080.30 
Ion type: [M-H]-
Precursor m/z: 1079
m/z	relative intensity
917	100
