Mass spectrum: Luteolin 6,8-di-C-hexoside; MS2; QIT; [M-H]-; 25->30%
Name: Luteolin 6,8-di-C-hexoside
Class: CLASS1 Flavonoid
Class: CLASS2 Flavone
Class: CLASS3 Luteolin glycoside
Formula: C27H30O16
Exact mass: 610.15 
Ion type: [M-H]-
Precursor m/z: 609
m/z	relative intensity
591	3
549	1
519	18
489	100
399	46
369	38
