Mass spectrum: 1-Methoxy-3-Indolylmethyl glucosinolate; MS2; QIT; [M-H]-; 35
Name: 1-Methoxy-3-Indolylmethyl glucosinolate
Name: Neoglucobrassicin
Class: CLASS1 Glucosinolate
Class: CLASS2 Indole glucosinolate
Formula: C17H22N2O10S2
Exact mass: 478.07 
Ion type: [M-H]-
Precursor m/z: 477
m/z	relative intensity
447	100
466	100
284	100
259	100
