Mass spectrum: (-)-N-[4'-Hydroxy-(E)-cinnamoyl]-L-glutamic acid; MS2; QIT; [M+H]+; n.d.
Name: (-)-N-[4'-Hydroxy-(E)-cinnamoyl]-L-glutamic acid
Name: N-p-coumaroyl-L-glutamic acid
Class: CLASS1 Amino acid
Class: CLASS2 Glutamic acid
Formula: C14H15N1O6
Exact mass: 293.09 
Ion type: [M+H]+
Precursor m/z: 294
m/z	relative intensity
918	100
903	75
294	55
587	35
147	19
