Mass spectrum: (-)-N-[3',4'-Dihydroxy-(E)-cinnamoyl]-L-glutamic acid; MS2; QIT; [M+H]+; n.d.
Name: (-)-N-[3',4'-Dihydroxy-(E)-cinnamoyl]-L-glutamic acid
Name: N-caffeoyl-L-glutamic acid
Class: CLASS1 Amino acid
Class: CLASS2 Glutamic acid
Formula: C14H15N1O7
Exact mass: 309.08 
Ion type: [M+H]+
Precursor m/z: 310
m/z	relative intensity
619	100
310	35
163	5
