Mass spectrum: 6-C-Hexosyl-chrysoeriol O-rhamnoside-O-hexoside; MS2; LIT; [M+H]+; 27%
Name: 6-C-Hexosyl-chrysoeriol O-rhamnoside-O-hexoside
Class: CLASS1 Flavonoid
Class: CLASS2 Flavone
Class: CLASS3 Chrysoeriol glycoside
Formula: C34H42O20
Exact mass: 770.23 
Ion type: [M+H]+
Precursor m/z: 771
m/z	relative intensity
771	100
753	100
607	100
463	100
445	100
427	100
397	100
367	100
343	100
313	100
