Mass spectrum: Ginsenoside Rc; MS2; QIT; [M-H]-; n.d.
Name: Ginsenoside Rc
Name: Panaxoside Rc
Class: CLASS1 Terpenoid
Class: CLASS2 Triterpenoid
Class: CLASS3 Ginsenoside
Formula: C53H90O22
Exact mass: 1078.59 
Ion type: [M-H]-
Precursor m/z: 1078
m/z	relative intensity
622	100
784	100
946	100
