Mass spectrum: Tricin; MS2; QIT; [M-H]-; n.d.
Name: Tricin
Class: CLASS1 Flavonoid
Class: CLASS2 Flavone
Class: CLASS3 Tricin
Formula: C17H14O7
Exact mass: 330.07 
Ion type: [M-H]-
Precursor m/z: 329
m/z	relative intensity
329	100
