Mass spectrum: L-Methionine sulfone; MS2; QqQ; [M+H]+; 30
Name: L-Methionine sulfone
Class: CLASS1 Amino acid
Class: CLASS2 Methionine
Formula: C5H11N1O4S1
Exact mass: 181.04 
Ion type: [M+H]+
Precursor m/z: 182
m/z	relative intensity
165	1
136	47
56	100
