Mass spectrum: Cyanidin 3-O-rhamnoside; MS2; QIT; [M+H]+; 30%
Name: Cyanidin 3-O-rhamnoside
Class: CLASS1 Flavonoid
Class: CLASS2 Anthocyanin
Class: CLASS3 Cyanidin glycoside
Formula: C21H21O10
Exact mass: 433.11 
Ion type: [M+H]+
Precursor m/z: 433
m/z	relative intensity
287	100
