Mass spectrum: L-Pipecolic acid; MS2; QqQ; [M+H]+; 22
Name: L-Pipecolic acid
Class: CLASS1 Other
Class: CLASS2 Carboxylic acid
Class: CLASS3 Other
Formula: C6H11N1O2
Exact mass: 129.08 
Ion type: [M+H]+
Precursor m/z: 130
m/z	relative intensity
84	100
56	15
