Mass spectrum: (3S)-7,4'-Dihydroxy-2'-methoxyisoflavan; MS2; QIT; [M+H]+; 15->33%
Name: (3S)-7,4'-Dihydroxy-2'-methoxyisoflavan
Class: CLASS1 Flavonoid
Class: CLASS2 Isoflavan
Class: CLASS3 Isoflavan
Formula: C16H16O4
Exact mass: 272.10 
Ion type: [M+H]+
Precursor m/z: 273.3
m/z	relative intensity
255.3	100
137.1	100
123.1	100
