Mass spectrum: Sanguiin H10; MS2; QIT; [M-H]-; 45%
Name: Sanguiin H10
Class: CLASS1 Tannin
Class: CLASS2 Ellagitannin
Class: CLASS3 Sanguiin
Formula: C68H48O44
Exact mass: 1568.15 
Ion type: [M-H]-
Precursor m/z: 934.2
m/z	relative intensity
896.9	100
633	100
451	100
301.2	100
