Mass spectrum: L-Lysine; MS2; QqQ; [M+H]+; 22
Name: L-Lysine
Class: CLASS1 Amino acid
Class: CLASS2 Lysine
Formula: C6H14N2O2
Exact mass: 146.11 
Ion type: [M+H]+
Precursor m/z: 147
m/z	relative intensity
130	63
129	8
84	100
56	15
