Mass spectrum: Epimedokoreanoside I; MS2; QIT; [M+H]+; 20->35%
Name: Epimedokoreanoside I
Class: CLASS1 Flavonoid
Class: CLASS2 Flavonol
Class: CLASS3 Epimedokoreanoside
Formula: C43H54O22
Exact mass: 922.31 
Ion type: [M+H]+
Precursor m/z: 923
m/z	relative intensity
719	100
