Mass spectrum: Quercetin 3-O-rhamnose-7-O-glucose; MS2; QqQ; [M-H]-; 30V
Name: Quercetin 3-O-rhamnose-7-O-glucose
Class: CLASS1 Flavonoid
Class: CLASS2 Flavonol
Class: CLASS3 Quercetin glycoside
Formula: C27H30O16
Exact mass: 610.15 
Ion type: [M-H]-
Precursor m/z: 609
m/z	relative intensity
609	100
462	100
463	100
447	100
299	100
300	100
301	100
