Mass spectrum: Catechin-(4alpha->8)-gallocatechin; MS2; QqQ; [M+H]+; n.d.
Name: Catechin-(4alpha->8)-gallocatechin
Class: CLASS1 Tannin
Class: CLASS2 Proanthocyanidin
Formula: C30H26O13
Exact mass: 594.14 
Ion type: [M+H]+
Precursor m/z: 595
m/z	relative intensity
427	51
409	51
307	78
289	75
247	100
