Mass spectrum: Luteolinidin; MS2; QIT; [M]+; n.d.
Name: Luteolinidin
Class: CLASS1 Flavonoid
Class: CLASS2 Flavone
Class: CLASS3 Luteolin glycoside
Exact mass: no data
Ion type: [M]+
Precursor m/z: 573
m/z	relative intensity
447	100
271	100
