Mass spectrum: (6aS, 11aS)-Homopterocarpin; MS2; QIT; [M+H]+; 15->33%
Name: (6aS, 11aS)-Homopterocarpin
Class: CLASS1 Phenylpropanoid
Class: CLASS2 Pterocarpan
Formula: C17H16O4
Exact mass: 284.10 
Ion type: [M+H]+
Precursor m/z: 285.2
m/z	relative intensity
270.2	2
257.2	5
253.1	2
181.1	1
177.1	8
161.2	51
137.1	100
109.1	100
