Mass spectrum: Peonidin-3-glucoside; MS2; TOF; [M]+; 400V
Name: Peonidin-3-glucoside
Class: CLASS1 Flavonoid
Class: CLASS2 Anthocyanin
Class: CLASS3 Peonidin glycoside
Formula: C22H23O11
Exact mass: 463.12 
Ion type: [M]+
Precursor m/z: 463
m/z	relative intensity
343	100
329	100
313	100
301	100
300	100
151	100
150	100
123	100
121	100
