Mass spectrum: Lucidenic acid D; MS2; QIT; [M-H]-; 30->50%
Name: Lucidenic acid D
Class: CLASS1 Terpenoid
Class: CLASS2 Triterpenoid
Class: CLASS3 Lucidenic acid 
Formula: C29H38O8
Exact mass: 514.26 
Ion type: [M-H]-
Precursor m/z: 513
m/z	relative intensity
513	100
471	100
