Mass spectrum: Postlupulone; MS2; QIT; [M-H]-; 30V
Name: Postlupulone
Class: CLASS1 Other
Class: CLASS2 Phenol
Class: CLASS3 Phloroglucinol
Exact mass: no data
Ion type: [M-H]-
Precursor m/z: 385
m/z	relative intensity
273	100
316	29
261	12
248	11
205	10
341	4
