Mass spectrum: Silydianin; MS2; QIT; [M-H]-; 50%
Name: Silydianin
Name: Silidianin
Class: CLASS1 Flavonoid
Class: CLASS2 Other
Formula: C25H22O10
Exact mass: 482.12 
Ion type: [M-H]-
Precursor m/z: 481
m/z	relative intensity
453	100
151	2
169	22
181	3
301	2
327	1
365	1
391	8
409	2
437	2
463	11
