Mass spectrum: Narirutin; MS2; QIT; [M+H]+; 35%
Name: Narirutin
Class: CLASS1 Flavonoid
Class: CLASS2 Flavanone
Class: CLASS3 Narirutin
Formula: C27H32O14
Exact mass: 580.18 
Ion type: [M+H]+
Precursor m/z: 581
m/z	relative intensity
563	14
545	19
527	8
477	1
459	12
435	55
419	100
417	42
401	10
383	5
461	6
315	11
273	10
