Mass spectrum: Qurcetin-3-(caffeoylsinapoyl)sophorotrioside-7-glucoside; MS2; QIT; [M-H]-; 0.3->2V
Name: Qurcetin-3-(caffeoylsinapoyl)sophorotrioside-7-glucoside
Class: CLASS1 Flavonoid
Class: CLASS2 Flavonol
Class: CLASS3 Quercetin glycoside
Formula: C59H66O34
Exact mass: 1318.34 
Ion type: [M-H]-
Precursor m/z: 1317
m/z	relative intensity
1155	100
993	73
949	4
787	20
