Mass spectrum: Symplocoside like saponin 8; MS2; LIT; [M+Na]+; 100V
Name: Symplocoside like saponin 8
Class: CLASS1 Flavonoid
Class: CLASS2 Flavonol
Class: CLASS3 Symplocoside
Formula: C62H92O23
Exact mass: 1204.60 
Ion type: [M+Na]+
Precursor m/z: 1227
m/z	relative intensity
1125	100
1079	100
525	100
393	100
363	100
303	100
245	100
