Mass spectrum: Tricin O-hexoside; MS2; LIT; [M+H]+; 27%
Name: Tricin O-hexoside
Class: CLASS1 Flavonoid
Class: CLASS2 Flavone
Class: CLASS3 Tricin glycoside
Formula: C23H24O12
Exact mass: 492.13 
Ion type: [M+H]+
Precursor m/z: 493
m/z	relative intensity
331	100
315	100
