Mass spectrum: Capsanthin-di-myristate; MS2; QIT; [M+H]+; 1.0V
Name: Capsanthin-di-myristate
Class: CLASS1 Terpenoid
Class: CLASS2 Carotenoid
Class: CLASS3 Capsanthin
Formula: C68H108O5
Exact mass: 1004.82 
Ion type: [M+H]+
Precursor m/z: 1005
m/z	relative intensity
777	100
776	36
775	24
549	22
