Mass spectrum: Rhamnosyl dihexosyl methyl luteolin; MS2; QqQ; [M+H]+; 30->60V
Name: Rhamnosyl dihexosyl methyl luteolin
Class: CLASS1 Flavonoid
Class: CLASS2 Flavone
Class: CLASS3 Isoscoparin glycoside
Formula: C34H42O20
Exact mass: 770.23 
Ion type: [M+H]+
Precursor m/z: 771
m/z	relative intensity
625	100
608	100
301	100
