Mass spectrum: Glutathione (reduced from); MS2; QqQ; [M+H]+; 18
Name: Glutathione (reduced from)
Class: CLASS1 Amino acid
Class: CLASS2 Peptide
Class: CLASS3 Oligo peptide
Formula: C18H8N3O6S1
Exact mass: 307.32 
Ion type: [M+H]+
Precursor m/z: 308
m/z	relative intensity
179	100
76	69
84	59
162	52
130	18
116	17
