Mass spectrum: Eriocitrin; MS2; QqQ; [M-H]-; 35
Name: Eriocitrin
Class: CLASS1 Flavonoid
Class: CLASS2 Flavanone
Class: CLASS3 Eriocitrin
Formula: C27H32O15
Exact mass: 596.17 
Ion type: [M-H]-
Precursor m/z: 595
m/z	relative intensity
459	100
287	100
151	100
135	100
