Mass spectrum: L-Homocystine; MS2; QqQ; [M-H]-; -12
Name: L-Homocystine
Class: CLASS1 Amino acid
Class: CLASS2 Homocystine
Formula: C8H16N2O4S2
Exact mass: 268.06 
Ion type: [M-H]-
Precursor m/z: 267
m/z	relative intensity
132	100
134	52
72	71
115	44
71	31
