Mass spectrum: Ginsenoside Re; MS2; QIT; [M-H]-; 30V
Name: Ginsenoside Re
Class: CLASS1 Terpenoid
Class: CLASS2 Triterpenoid
Class: CLASS3 Ginsenoside
Formula: C48H82O18
Exact mass: 946.55 
Ion type: [M-H]-
Precursor m/z: 945
m/z	relative intensity
799	58
783	100
765	24
637	79
619	25
475	44
