Mass spectrum: Ganoderic acid G; MS2; QIT; [M-H]-; 30->50%
Name: Ganoderic acid G
Class: CLASS1 Terpenoid
Class: CLASS2 Triterpenoid
Class: CLASS3 Ganoderic acid
Formula: C30H44O8
Exact mass: 532.30 
Ion type: [M-H]-
Precursor m/z: 531
m/z	relative intensity
513	100
498	11
469	100
454	47
452	33
437	23
304	10
302	21
266	48
