Mass spectrum: L-Citrulline; MS2; QqQ; [M-H]-; -14
Name: L-Citrulline
Class: CLASS1 Amino acid
Class: CLASS2 Citrulline
Formula: C6H13N3O3
Exact mass: 175.10 
Ion type: [M-H]-
Precursor m/z: 174
m/z	relative intensity
131	100
