Mass spectrum: Naringerin 7-O-rutinoside; MS2; QqQ; [M-H]-; 35V
Name: Naringerin 7-O-rutinoside
Name: narirutin
Class: CLASS1 Flavonoid
Class: CLASS2 Chalcone
Class: CLASS3 Naringenin glycoside
Formula: C27H32O14
Exact mass: 580.18 
Ion type: [M-H]-
Precursor m/z: 579
m/z	relative intensity
271	100
119	100
