Mass spectrum: Taxchinin G; MS2; QqQ; [M+H]+; 25V
Name: Taxchinin G
Class: CLASS1 Terpenoid
Class: CLASS2 Diterpenoid
Class: CLASS3 Taxchinin
Formula: C28H40O11
Exact mass: 552.26 
Ion type: [M+H]+
Precursor m/z: 553
m/z	relative intensity
237	45
255	15
297	60
315	53
357	100
373	22
375	15
433	18
457	28
475	34
535	17
553	3
