Mass spectrum: 2'-Desacetoxy austrospicatine; MS2; QqQ; [M+H]+; 25V
Name: 2'-Desacetoxy austrospicatine
Class: CLASS1 Terpenoid
Class: CLASS2 Diterpenoid
Class: CLASS3 Austrospicatine
Formula: C39H53N1O10
Exact mass: 695.37 
Ion type: [M+H]+
Precursor m/z: 696
m/z	relative intensity
134	28
194	100
263	10
281	8
516	7
594	12
636	15
