Mass spectrum: Amentoflavone; MS2; QqQ; [M-H]-; -40
Name: Amentoflavone
Class: CLASS1 Flavonoid
Class: CLASS2 Flavone
Class: CLASS3 Apigenin glycoside
Formula: C30H18O10
Exact mass: 538.09 
Ion type: [M-H]-
Precursor m/z: 537
m/z	relative intensity
537	100
375	65
