Mass spectrum: L-Isoleucine; MS2; QqQ; [M+H]+; 16
Name: L-Isoleucine
Class: CLASS1 Amino acid
Class: CLASS2 Isoleucine
Formula: C6H13N1O2
Exact mass: 131.09 
Ion type: [M+H]+
Precursor m/z: 132
m/z	relative intensity
86	100
69	15
44	6
41	4
56	3
