Mass spectrum: Cyanidin 3-(malonyl)(acetyl)glucoside; MS2; QIT; [M]+; n.d.
Name: Cyanidin 3-(malonyl)(acetyl)glucoside
Class: CLASS1 Flavonoid
Class: CLASS2 Anthocyanin
Class: CLASS3 Cyanidin glycoside
Exact mass: no data
Ion type: [M]+
Precursor m/z: 577
m/z	relative intensity
491	100
287	100
