Mass spectrum: Bavachromene; MS2; QIT; [M+H]+; n.d.
Name: Bavachromene
Class: CLASS1 Flavonoid
Class: CLASS2 Other
Class: CLASS3 Bavachromene
Formula: C20H18O4
Exact mass: 322.12 
Ion type: [M+H]+
Precursor m/z: 323
m/z	relative intensity
91	5
119	5
147	50
221	100
279	5
391	9
611	10
713	10
