Mass spectrum: 10,13-Deacetyl-abeo-baccatin IV; MS2; QqQ; [M+H]+; 25V
Name: 10,13-Deacetyl-abeo-baccatin IV
Class: CLASS1 Terpenoid
Class: CLASS2 Diterpenoid
Class: CLASS3 Baccatin
Formula: C28H40O12
Exact mass: 568.25 
Ion type: [M+H]+
Precursor m/z: 569
m/z	relative intensity
227	12
313	50
373	100
433	15
473	7
491	9
533	11
551	13
569	8
