Mass spectrum: L-Cysteine; MS2; QqQ; [M+H]+; 20
Name: L-Cysteine
Class: CLASS1 Amino acid
Class: CLASS2 Cysteine
Formula: C3H7N1O2S1
Exact mass: 121.02 
Ion type: [M+H]+
Precursor m/z: 122
m/z	relative intensity
105	38
76	100
59	89
87	38
43	11
