Mass spectrum: Kaempferol 3-O-(sinapoyl)sophoroside; MS2; QIT; [M-H]-; 0.3->2V
Name: Kaempferol 3-O-(sinapoyl)sophoroside
Class: CLASS1 Flavonoid
Class: CLASS2 Flavonol
Class: CLASS3 Kaempferol glycoside
Formula: C38H40O20
Exact mass: 816.21 
Ion type: [M-H]-
Precursor m/z: 815
m/z	relative intensity
609	100
429	4
285	10
