Mass spectrum: Ginsenoside Rb1; MS2; QIT; [M+Na]+; 36->40%
Name: Ginsenoside Rb1
Class: CLASS1 Terpenoid
Class: CLASS2 Triterpenoid
Class: CLASS3 Ginsenoside
Formula: C54H92O23
Exact mass: 1108.60 
Ion type: [M+Na]+
Precursor m/z: 1131
m/z	relative intensity
1131	20
789	100
365	30
