Mass spectrum: L-Proline; MS2; QqQ; [M+H]+; 20
Name: L-Proline
Class: CLASS1 Amino acid
Class: CLASS2 Proline
Formula: C5H9N1O2
Exact mass: 115.06 
Ion type: [M+H]+
Precursor m/z: 116
m/z	relative intensity
70	100
