Mass spectrum: Methionine-betaxanthin; MS2; QIT; [M+H]+; n.d.
Name: Methionine-betaxanthin
Class: CLASS1 Other
Class: CLASS2 Other
Class: CLASS3 Other
Exact mass: no data
Ion type: [M+H]+
Precursor m/z: 343
m/z	relative intensity
343	100
325	100
