Mass spectrum: C-Hexosyl-apigenin; MS2; LIT; [M+H]+; 27%
Name: C-Hexosyl-apigenin
Class: CLASS1 Flavonoid
Class: CLASS2 Flavone
Class: CLASS3 Apigenin glycoside
Formula: C21H20O10
Exact mass: 432.11 
Ion type: [M+H]+
Precursor m/z: 433
m/z	relative intensity
397	100
379	100
361	100
349	100
337	100
323	100
313	100
295	100
283	100
