Mass spectrum: Succinic acid; MS2; QqQ; [M+H]+; 10->40V
Name: Succinic acid
Class: CLASS1 Other
Class: CLASS2 Carboxylic acid
Class: CLASS3 Succinic acid
Formula: C4H6O4
Exact mass: 118.03 
Ion type: [M+H]+
Precursor m/z: 117
m/z	relative intensity
117	100
99	100
73	100
