Mass spectrum: Indole-3-carbaldehyde; MS2; QIT; [M+Na]+; 15->55V
Name: Indole-3-carbaldehyde
Class: CLASS1 Alkaloid
Class: CLASS2 Indole
Class: CLASS3 Indole
Formula: C9H7N1O1
Exact mass: 145.05 
Precursor m/z: 146.061
m/z	relative intensity
146.061	4
145.05	15
118.067	100
117.059	18
91.056	28
