Mass spectrum: 2'-Hydroxy-3,4-dimethoxy-5'-methychalcone; MS2; QIT; [M-H]-; 5->10%
Name: 2'-Hydroxy-3,4-dimethoxy-5'-methychalcone
Class: CLASS1 Flavonoid
Class: CLASS2 Chalcone
Class: CLASS3 Chalcone
Formula: C18H18O4
Exact mass: 298.12 
Ion type: [M-H]-
Precursor m/z: 297
m/z	relative intensity
297	10
282	100
267	92
254	2
