Mass spectrum: 12-Hydroxy-3,7,11,15,23-pentaoxolanost-8-en-26-oic acid; MS2; QIT; [M-H]-; 30->50%
Name: 12-Hydroxy-3,7,11,15,23-pentaoxolanost-8-en-26-oic acid
Class: CLASS1 Other
Class: CLASS2 Other
Class: CLASS3 Other
Formula: C30H40O8
Exact mass: 528.27 
Ion type: [M-H]-
Precursor m/z: 527
m/z	relative intensity
509	100
465	100
