Mass spectrum: Morphine; MS2; QIT; [M+H]+; 16%
Name: Morphine
Class: CLASS1 Alkaloid
Class: CLASS2 Benzylisoquinoline
Class: CLASS3 Morphine
Formula: C17H19N1O3
Exact mass: 285.14 
Ion type: [M+H]+
Precursor m/z: 286
m/z	relative intensity
229	68
211	36
201	100
185	10
183	18
173	14
155	5
268	26
239	16
219	7
209	8
193	10
147	5
