Mass spectrum: Methoxybenzoic acid rhamnoside ; MS2; QIT; [M-H]-; n.d.
Name: Methoxybenzoic acid rhamnoside
Class: CLASS1 Other
Class: CLASS2 Benzoic acid
Class: CLASS3 Benzoyl glycoside
Formula: C14H18O7
Exact mass: 298.11 
Ion type: [M-H]-
Precursor m/z: 297
m/z	relative intensity
151	100
