Mass spectrum: Ananaflavoside B; MS2; QIT; [M+H]+; n.d.
Name: Ananaflavoside B
Class: CLASS1 Flavonoid
Class: CLASS2 Flavone
Class: CLASS3 Ananaflavoside
Formula: C25H28O13
Exact mass: 536.15 
Ion type: [M+H]+
Precursor m/z: 537
m/z	relative intensity
375	100
