Mass spectrum: L-Homocysteine; MS2; QqQ; [M+H]+; 16
Name: L-Homocysteine
Class: CLASS1 Amino acid
Class: CLASS2 Homocysteine
Formula: C4H9N1O2S1
Exact mass: 135.04 
Ion type: [M+H]+
Precursor m/z: 136
m/z	relative intensity
118	20
90	100
73	6
56	28
