Mass spectrum: Hexosyl-hexosyl-rhamnosyl bayogenin; MS2; QIT; [M-H]-; n.d.
Name: Hexosyl-hexosyl-rhamnosyl bayogenin
Class: CLASS1 Terpenoid
Class: CLASS2 Triterpenoid
Class: CLASS3 Bayogenin glycoside
Formula: C48H78O19
Exact mass: 958.51 
Ion type: [M-H]-
Precursor m/z: 957.3
m/z	relative intensity
810.5	50
648.3	45
486.4	100
