Mass spectrum: S-adenosyl-L-homocysteine; MS2; QqQ; [M+H]+; 30
Name: S-adenosyl-L-homocysteine
Class: CLASS1 Amino acid
Class: CLASS2 Homocysteine
Formula: C14H20N6O5S1
Exact mass: 384.12 
Ion type: [M+H]+
Precursor m/z: 385
m/z	relative intensity
134	100
136	85
88	72
250	23
