Mass spectrum: trans-Resveratrol C-glucoside; MS2; QIT; [M-H]-; 100%
Name: trans-Resveratrol C-glucoside
Class: CLASS1 Stilbenoid
Class: CLASS2 Resveratrol
Class: CLASS3 Resveratrol glycoside
Formula: C20H22O8
Exact mass: 390.13 
Ion type: [M-H]-
Precursor m/z: 389
m/z	relative intensity
269	100
241	11
299	2
175	1
163	1
