Mass spectrum: 7-O-Hexosyl-C-deoxyhexosylapigenin; MS2; QIT; [M-H]-; 0.3->2V
Name: 7-O-Hexosyl-C-deoxyhexosylapigenin
Class: CLASS1 Flavonoid
Class: CLASS2 Flavone
Class: CLASS3 Apigenin glycoside
Formula: C27H30O14
Exact mass: 578.16 
Ion type: [M-H]-
Precursor m/z: 577
m/z	relative intensity
473	5
415	40
353	27
311	100
