Mass spectrum: Quercetin 3-O-rhamnoside-7-O-glucoside; MS2; QIT; [M-H]-; 25->30%
Name: Quercetin 3-O-rhamnoside-7-O-glucoside
Class: CLASS1 Flavonoid
Class: CLASS2 Flavonol
Class: CLASS3 Quercetin glycoside
Formula: C27H30O16
Exact mass: 610.15 
Ion type: [M-H]-
Precursor m/z: 609
m/z	relative intensity
463	59
447	74
301	100
