Mass spectrum: Isosakuranetin; MS2; QIT; [M-H]-; 45%
Name: Isosakuranetin
Class: CLASS1 Flavonoid
Class: CLASS2 Flavanone
Class: CLASS3 Sakuranetin
Formula: C16H14O5
Exact mass: 286.08 
Ion type: [M-H]-
Precursor m/z: 285
m/z	relative intensity
285	2
270	75
257	1
243	100
241	18
228	1
226	8
199	2
175	6
151	12
164	88
136	3
125	1
107	1
