Mass spectrum: Capsanthin-laurate; MS2; QIT; [M+H]+; 1.0V
Name: Capsanthin-laurate
Class: CLASS1 Terpenoid
Class: CLASS2 Carotenoid
Class: CLASS3 Capsanthin
Formula: C52H78O4
Exact mass: 766.59 
Ion type: [M+H]+
Precursor m/z: 767
m/z	relative intensity
567	100
749	45
549	16
511	14
565	11
493	5
566	5
413	3
