Mass spectrum: Resveratrol dimer; MS2; QIT; [M-H]-; 100%
Name: Resveratrol dimer
Name: Caraphenol
Class: CLASS1 Stilbenoid
Class: CLASS2 Resveratrol
Formula: C28H22O7
Exact mass: 470.14 
Ion type: [M-H]-
Precursor m/z: 469
m/z	relative intensity
451	100
363	23
375	19
281	1
423	1
