Mass spectrum: Cyanidin 3-sophoroside-5-rhamnoside; MS2; QqQ; [M]+; 25V
Name: Cyanidin 3-sophoroside-5-rhamnoside
Class: CLASS1 Flavonoid
Class: CLASS2 Anthocyanin
Class: CLASS3 Cyanidin glycoside
Formula: C21H21O11
Exact mass: 449.11 
Ion type: [M]+
Precursor m/z: 449
m/z	relative intensity
287	100
