Mass spectrum: Quercetin 3-O-(feruloyl)triglucoside; MS2; QIT; [M-H]-; 0.3->2V
Name: Quercetin 3-O-(feruloyl)triglucoside
Class: CLASS1 Flavonoid
Class: CLASS2 Flavonol
Class: CLASS3 Quercetin glycoside
Formula: C43H48O25
Exact mass: 964.25 
Ion type: [M-H]-
Precursor m/z: 963
m/z	relative intensity
787	100
