Mass spectrum: Rhamnosyl-galactosyl-glcA-soyasapogenol E; MS2; QIT; [M-H]-; n.d.
Name: Rhamnosyl-galactosyl-glcA-soyasapogenol E
Class: CLASS1 Terpenoid
Class: CLASS2 Triterpenoid
Class: CLASS3 Soyasapogenol glycoside
Formula: C48H76O18
Exact mass: 940.50 
Ion type: [M-H]-
Precursor m/z: 939.5
m/z	relative intensity
938.9	18
920.9	44
876.9	38
794.8	40
731.8	40
632.5	5
612.7	38
522.6	100
456.9	20
