Mass spectrum: (+)-N-[3',4'-Dihydroxy-(Z)-cinnamoyl]-L-aspartic acid; MS2; QIT; [M+H]+; n.d.
Name: (+)-N-[3',4'-Dihydroxy-(Z)-cinnamoyl]-L-aspartic acid
Name: (+)-N-[3',4'-dihydroxy-(Z)-cinnamoyl]-L-aspartic acid
Class: CLASS1 Amino acid
Class: CLASS2 Aspartic acid
Formula: C13H13N1O7
Exact mass: 295.07 
Ion type: [M+H]+
Precursor m/z: 296
m/z	relative intensity
613	100
296	100
591	55
924	52
908	46
629	38
318	25
163	21
