Mass spectrum: Isorhamnetin 3,7-di-O-glucoside; MS2; QIT; [M-H]-; 0.3->2V
Name: Isorhamnetin 3,7-di-O-glucoside
Class: CLASS1 Flavonoid
Class: CLASS2 Flavonol
Class: CLASS3 Isorhamnetin glycoside
Formula: C28H32O17
Exact mass: 640.16 
Ion type: [M-H]-
Precursor m/z: 639
m/z	relative intensity
477	100
