Mass spectrum: Hexosyl-soyasapogenol B; MS2; QIT; [M-H]-; n.d.
Name: Hexosyl-soyasapogenol B
Class: CLASS1 Terpenoid
Class: CLASS2 Triterpenoid
Class: CLASS3 Soyasapogenol glycoside
Formula: C37H62O9
Exact mass: 650.44 
Ion type: [M-H]-
Precursor m/z: 649
m/z	relative intensity
486.5	100
