Mass spectrum: GlcA-hederagenin; MS2; QIT; [M-H]-; n.d.
Name: GlcA-hederagenin
Class: CLASS1 Terpenoid
Class: CLASS2 Triterpenoid
Class: CLASS3 Hederagenin glycoside
Formula: C36H56O10
Exact mass: 648.39 
Ion type: [M-H]-
Precursor m/z: 647.4
m/z	relative intensity
470.4	100
