Mass spectrum: Isoorientin 4'-O-glucoside; MS2; QIT; [M-H]-; 0.3->2V
Name: Isoorientin 4'-O-glucoside
Name: 4'-O-glucosyl-6-C-glucosylluteolin
Class: CLASS1 Flavonoid
Class: CLASS2 Flavone
Class: CLASS3 Luteolin glycoside
Formula: C27H30O16
Exact mass: 610.15 
Ion type: [M-H]-
Precursor m/z: 609
m/z	relative intensity
489	7
447	100
357	3
327	34
