Mass spectrum: Quercetin-3-O-sophoroside-7-O-glucoside-sinapoyl; MS2; QIT; [M-H]-; 0.3->2V
Name: Quercetin-3-O-sophoroside-7-O-glucoside-sinapoyl
Class: CLASS1 Flavonoid
Class: CLASS2 Flavonol
Class: CLASS3 Quercetin glycoside
Formula: C44H50O26
Exact mass: 994.26 
Ion type: [M-H]-
Precursor m/z: 993
m/z	relative intensity
831	100
787	100
625	60
