Mass spectrum: OH-gossypetin; MS2; QqQ; [M+H]+; 30V
Name: OH-gossypetin
Class: CLASS1 Flavonoid
Class: CLASS2 Flavonol
Class: CLASS3 Gossypetin
Formula: C15H10O9
Exact mass: 334.03 
Ion type: [M+H]+
Precursor m/z: 335
m/z	relative intensity
153	100
167	100
169	100
181	100
