Mass spectrum: Ferulic acid hexoside ; MS2; QIT; [M-H]-; n.d.
Name: Ferulic acid hexoside
Class: CLASS1 Phenylpropanoid
Class: CLASS2 Phenylpropanoid glycoside
Class: CLASS3 Feruloyl glycoside
Formula: C16H18O9
Exact mass: 354.10 
Ion type: [M-H]-
Precursor m/z: 355
m/z	relative intensity
193	100
179	4
149	6
134	5
