Mass spectrum: Colupulone; MS2; QIT; [M+H]+; 30V
Name: Colupulone
Class: CLASS1 Other
Class: CLASS2 Phenol
Class: CLASS3 Phloroglucinol
Formula: C25H36O4
Exact mass: 400.26 
Ion type: [M+H]+
Precursor m/z: 401
m/z	relative intensity
275	100
345	75
277	58
219	18
333	17
381	10
