Mass spectrum: Procyanidin B2; MS2; QIT; [M-H]-; 100%
Name: Procyanidin B2
Class: CLASS1 Tannin
Class: CLASS2 Proanthocyanidin
Formula: C30H26O12
Exact mass: 578.14 
Ion type: [M-H]-
Precursor m/z: 577
m/z	relative intensity
425	100
407	39
287	25
289	20
451	13
559	5
299	5
