Mass spectrum: Pelargonidin 3-rutinoside; MS2; QIT; [M+H]+; 20->10V
Name: Pelargonidin 3-rutinoside
Class: CLASS1 Flavonoid
Class: CLASS2 Anthocyanin
Class: CLASS3 Pelargonidin glycoside
Formula: C27H31O14Cl1
Exact mass: 579.17 
Ion type: [M+H]+
Precursor m/z: 579
m/z	relative intensity
579	100
433	100
271	100
