Mass spectrum: Galangin; MS2; QIT; [M-H]-; 45%
Name: Galangin
Name: Norizalpinin
Class: CLASS1 Flavonoid
Class: CLASS2 Flavonol
Class: CLASS3 Galangin
Formula: C15H10O5
Exact mass: 270.05 
Ion type: [M-H]-
Precursor m/z: 269
m/z	relative intensity
269	100
241	3
227	11
225	3
213	10
197	12
183	1
