Mass spectrum: 8-C-Hexosyl-apigenin O-rhamnoside-O-hexoside; MS2; LIT; [M+H]+; 27%
Name: 8-C-Hexosyl-apigenin O-rhamnoside-O-hexoside
Class: CLASS1 Flavonoid
Class: CLASS2 Flavone
Class: CLASS3 Apigenin glycoside
Formula: C33H40O19
Exact mass: 740.22 
Ion type: [M+H]+
Precursor m/z: 741
m/z	relative intensity
741	100
595	100
433	100
415	100
397	100
337	100
313	100
283	100
271	100
