Mass spectrum: Ferulic acid; MS2; QqQ; [M-H]-; -20
Name: Ferulic acid
Class: CLASS1 Phenylpropanoid
Class: CLASS2 Phenylpropanoid monomer
Class: CLASS3 Ferulic acid
Formula: C10H10O4
Exact mass: 194.06 
Ion type: [M-H]-
Precursor m/z: 193
m/z	relative intensity
193	30
149	55
178	20
134	100
