Mass spectrum: Tanshinol B; MS2; QIT; [M+H]+; 45%
Name: Tanshinol B
Class: CLASS1 Terpenoid
Class: CLASS2 Diterpenoid
Class: CLASS3 Tanshinol 
Formula: C18H16O4
Exact mass: 296.10 
Ion type: [M+H]+
Precursor m/z: 297
m/z	relative intensity
279	100
269	20
261	55
