Mass spectrum: L-Homocysteine; MS2; QqQ; [M-H]-; -16
Name: L-Homocysteine
Class: CLASS1 Amino acid
Class: CLASS2 Homocysteine
Formula: C4H9N1O2S1
Exact mass: 135.04 
Ion type: [M-H]-
Precursor m/z: 134
m/z	relative intensity
33	100
