Mass spectrum: Hexosyl-soyasapogenol E; MS2; QIT; [M-H]-; n.d.
Name: Hexosyl-soyasapogenol E
Class: CLASS1 Terpenoid
Class: CLASS2 Triterpenoid
Class: CLASS3 Soyasapogenol glycoside
Formula: C36H58O8
Exact mass: 618.41 
Ion type: [M-H]-
Precursor m/z: 617.5
m/z	relative intensity
454.6	100
