Mass spectrum: Irilone 4'-O-beta-d-glucoside-6''-O-malonate; MS2; QIT; [M+H]+; 4.0V
Name: Irilone 4'-O-beta-d-glucoside-6''-O-malonate
Class: CLASS1 Flavonoid
Class: CLASS2 Isoflavone
Class: CLASS3 Irilone
Formula: C25H22O14
Exact mass: 546.10 
Precursor m/z: 547
m/z	relative intensity
547	80
299	100
