Mass spectrum: 5-Hydroxyferuloyl-feruloylglycerol; MS2; QIT; [M-H]-; n.d.
Name: 5-Hydroxyferuloyl-feruloylglycerol
Class: CLASS1 Phenylpropanoid
Class: CLASS2 Phenylpropanoid ester
Class: CLASS3 Glycerol
Formula: C22H22O10
Exact mass: 446.12 
Ion type: [M-H]-
Precursor m/z: 445
m/z	relative intensity
269	100
175	33
