Mass spectrum: Vinblastine; MS2; QIT; [M+H]+; 0.9V
Name: Vinblastine
Class: CLASS1 Alkaloid
Class: CLASS2 Bisindole
Class: CLASS3 Vinblastine
Formula: C46H58N4O9
Exact mass: 810.42 
Ion type: [M+H]+
Precursor m/z: 811
m/z	relative intensity
811	47
793	74
751	100
733	24
680	8
649	16
542	36
522	35
355	78
337	20
