Mass spectrum: Taxinine B; MS2; QqQ; [M+H]+; 25V
Name: Taxinine B
Class: CLASS1 Terpenoid
Class: CLASS2 Diterpenoid
Class: CLASS3 Taxinine
Formula: C37H44O11
Exact mass: 664.29 
Ion type: [M+H]+
Precursor m/z: 665
m/z	relative intensity
131	100
267	60
277	30
295	40
313	28
355	35
415	33
457	20
517	40
547	10
665	5
