Mass spectrum: Apigenin 6-C-pentoside- 8-C-hexoside; MS2; QIT; [M-H]-; 25->30%
Name: Apigenin 6-C-pentoside- 8-C-hexoside
Class: CLASS1 Flavonoid
Class: CLASS2 Flavone
Class: CLASS3 Apigenin glycoside
Formula: C26H28O14
Exact mass: 564.15 
Ion type: [M-H]-
Precursor m/z: 563
m/z	relative intensity
545	21
503	65
473	100
443	55
383	99
353	100
