Mass spectrum: Capsanthin-palmitate; MS2; QIT; [M+H]+; 1.0V
Name: Capsanthin-palmitate
Class: CLASS1 Terpenoid
Class: CLASS2 Carotenoid
Class: CLASS3 Capsanthin
Formula: C56H86O4
Exact mass: 822.65 
Ion type: [M+H]+
Precursor m/z: 823
m/z	relative intensity
567	100
805	52
549	13
511	12
415	11
565	10
493	10
