Mass spectrum: Tanshinone I; MS2; QIT; [M+H]+; n.d.
Name: Tanshinone I
Class: CLASS1 Terpenoid
Class: CLASS2 Diterpenoid
Class: CLASS3 Tanshinone
Formula: C18H12O3
Exact mass: 276.08 
Ion type: [M+H]+
Precursor m/z: 277
m/z	relative intensity
337	100
455	100
249	100
