Mass spectrum: Ginsenoside malonyl-Ra1/Ra2; MS2; QIT; [M-H]-; 30V
Name: Ginsenoside malonyl-Ra1/Ra2
Class: CLASS1 Terpenoid
Class: CLASS2 Triterpenoid
Class: CLASS3 Ginsenoside
Formula: C61H100O29
Exact mass: 1296.64 
Ion type: [M-H]-
Precursor m/z: 1295
m/z	relative intensity
1209	47
1191	100
1089	9
1059	6
1077	5
1029	4
