Mass spectrum: Zeaxanthin-myristate; MS2; QIT; [M+H]+; 1.0V
Name: Zeaxanthin-myristate
Class: CLASS1 Terpenoid
Class: CLASS2 Carotenoid
Class: CLASS3 Zeaxanthin
Formula: C54H82O3
Exact mass: 778.63 
Ion type: [M+H]+
Precursor m/z: 779
m/z	relative intensity
551	100
761	39
550	24
686	19
458	12
429	10
533	9
