Mass spectrum: Monohydroxytanshinone I; MS2; QIT; [M+H]+; 45%
Name: Monohydroxytanshinone I
Class: CLASS1 Terpenoid
Class: CLASS2 Diterpenoid
Class: CLASS3 Tanshinone
Formula: C18H12O4
Exact mass: 292.07 
Ion type: [M+H]+
Precursor m/z: 293
m/z	relative intensity
293	10
275	8
266	14
265	100
247	6
