Mass spectrum: Humulone/Adhumulone; MS2; QIT; [M+H]+; 30V
Name: Humulone/Adhumulone
Class: CLASS1 Other
Class: CLASS2 Phenol
Class: CLASS3 Phloroglucinol
Formula: C21H30O5
Exact mass: 362.21 
Ion type: [M+H]+
Precursor m/z: 363
m/z	relative intensity
223	100
239	78
295	51
307	35
167	8
345	2
