Mass spectrum: (Z)-Neochrome; MS2; QIT; [M+H]+; 20->10V
Name: (Z)-Neochrome
Class: CLASS1 Terpenoid
Class: CLASS2 Carotenoid
Class: CLASS3 Neochrome
Formula: C40H56O4
Exact mass: 600.42 
Ion type: [M+H]+
Precursor m/z: 601
m/z	relative intensity
583	100
565	100
547	100
