Mass spectrum: C-Hexosyl-C-pentosyl-chrysoeriol O-hexoside; MS2; LIT; [M+H]+; 27%
Name: C-Hexosyl-C-pentosyl-chrysoeriol O-hexoside
Class: CLASS1 Flavonoid
Class: CLASS2 Flavone
Class: CLASS3 Chrysoeriol glycoside
Formula: C33H40O20
Exact mass: 756.21 
Ion type: [M+H]+
Precursor m/z: 757
m/z	relative intensity
757	100
595	100
577	100
475	100
433	100
415	100
379	100
367	100
337	100
313	100
301	100
