Mass spectrum: N,N'-Bis(sinapoyl)spermidine; MS2; QIT; [M+H]+; 15->55V
Name: N,N'-Bis(sinapoyl)spermidine
Class: CLASS1 Alkaloid
Class: CLASS2 Polyamine
Class: CLASS3 Spermidine
Formula: C29H40N3O8
Exact mass: 558.28 
Precursor m/z: 558.281
m/z	relative intensity
558.281	9
352.216	32
335.2	7
281.15	3
278.128	7
264.12	55
207.065	100
175.038	23
147.0403	4
