Mass spectrum: p-Hydroxybenzoic acid; MS2; QIT; [M-H]-; n.d.
Name: p-Hydroxybenzoic acid
Class: CLASS1 Other
Class: CLASS2 Benzoic acid
Class: CLASS3 Hydroxybenzoic acid
Formula: C7H6O3
Exact mass: 138.03 
Ion type: [M-H]-
Precursor m/z: 137
m/z	relative intensity
93	100
