Mass spectrum: Glycyl-glycine; MS2; QqQ; [M+H]+; 14
Name: Glycyl-glycine
Class: CLASS1 Amino acid
Class: CLASS2 Glycine
Formula: C4H8N2O3
Exact mass: 132.05 
Ion type: [M+H]+
Precursor m/z: 133
m/z	relative intensity
115	3
87	3
76	100
105	5
