Mass spectrum: Formononetin; MS2; QIT; [M-H]-; 30->34%
Name: Formononetin
Class: CLASS1 Flavonoid
Class: CLASS2 Isoflavone
Class: CLASS3 Formononetin
Formula: C16H12O4
Exact mass: 268.07 
Ion type: [M-H]-
Precursor m/z: 267
m/z	relative intensity
267	100
252	100
