Mass spectrum: Ginkgolide J; MS2; QqQ; [M-H]-; 30->42V
Name: Ginkgolide J
Class: CLASS1 Terpenoid
Class: CLASS2 Diterpenoid
Class: CLASS3 Ginkgolide
Formula: C20H24O10
Exact mass: 424.14 
Ion type: [M-H]-
Precursor m/z: 423
m/z	relative intensity
423	100
395	1
379	10
367	25
