Mass spectrum: 1-Feruloylquinic acid; MS2; QqQ; [M-H]-; 35V
Name: 1-Feruloylquinic acid
Class: CLASS1 Phenylpropanoid
Class: CLASS2 Phenylpropanoid ester
Class: CLASS3 Quinic acid
Formula: C17H20O9
Exact mass: 368.11 
Ion type: [M-H]-
Precursor m/z: 367
m/z	relative intensity
193	100
173	100
