Mass spectrum: (3S)-Vestitol; MS2; QIT; [M+H]+; 15->33%
Name: (3S)-Vestitol
Class: CLASS1 Flavonoid
Class: CLASS2 Isoflavan
Class: CLASS3 Vestitol
Formula: C16H16O4
Exact mass: 272.10 
Ion type: [M+H]+
Precursor m/z: 273.2
m/z	relative intensity
163.1	100
137.1	100
123.1	100
