Mass spectrum: gamma-Aminobutyric acid; MS2; QqQ; [M+H]+; 14
Name: gamma-Aminobutyric acid
Name: GABA
Class: CLASS1 Other
Class: CLASS2 Carboxylic acid
Class: CLASS3 Butyric acid
Formula: C4H9N1O2
Exact mass: 103.06 
Ion type: [M+H]+
Precursor m/z: 104
m/z	relative intensity
87	100
86	31
45	27
69	24
43	10
41	9
