Mass spectrum: Caffeic acid; MS2; QIT; [M-H]-; n.d.
Name: Caffeic acid
Class: CLASS1 Phenylpropanoid
Class: CLASS2 Phenylpropanoid monomer
Class: CLASS3 Caffeic acid
Formula: C9H8O4
Exact mass: 180.04 
Ion type: [M-H]-
Precursor m/z: 179
m/z	relative intensity
135	100
