Mass spectrum: L-Homocystine; MS2; QqQ; [M+H]+; 12
Name: L-Homocystine
Class: CLASS1 Amino acid
Class: CLASS2 Homocystine
Formula: C8H16N2O4S2
Exact mass: 268.06 
Ion type: [M+H]+
Precursor m/z: 269
m/z	relative intensity
136	100
90	41
134	37
88	32
