Mass spectrum: Cyanidin 3-sophoroside-5-rhamnoside; MS2; QIT; [M]+; 50%
Name: Cyanidin 3-sophoroside-5-rhamnoside
Class: CLASS1 Flavonoid
Class: CLASS2 Anthocyanin
Class: CLASS3 Cyanidin glycoside
Formula: C33H41O20
Exact mass: 757.22 
Ion type: [M]+
Precursor m/z: 757
m/z	relative intensity
611	100
433	100
287	100
