Mass spectrum: Zeaxanthin-laurate-myristate; MS2; QIT; [M+H]+; 1.0V
Name: Zeaxanthin-laurate-myristate
Class: CLASS1 Terpenoid
Class: CLASS2 Carotenoid
Class: CLASS3 Zeaxanthin
Formula: C66H104O4
Exact mass: 960.79 
Ion type: [M+H]+
Precursor m/z: 961
m/z	relative intensity
761	100
733	86
533	49
760	45
668	41
