Mass spectrum: Rhodiolgin; MS2; QqQ; [M-H]-; 30V
Name: Rhodiolgin
Name: Gossypetin-7-O-L-rhamnopyranoside
Class: CLASS1 Flavonoid
Class: CLASS2 Flavonol
Class: CLASS3 Gossypetin glycoside
Formula: C21H20O12
Exact mass: 464.10 
Ion type: [M-H]-
Precursor m/z: 463
m/z	relative intensity
463	100
316	100
317	100
