Mass spectrum: Oleuropein-aglycone; MS2; QqQ; [M-H]-; 30V
Name: Oleuropein-aglycone
Class: CLASS1 Terpenoid
Class: CLASS2 Iridoid
Class: CLASS3 Ligstroside
Formula: C19H22O7
Exact mass: 362.14 
Ion type: [M-H]-
Precursor m/z: 361
m/z	relative intensity
291	100
259	30
101	25
127	7
138	8
