Mass spectrum: Symplocoside like saponin 1a; MS2; LIT; [M+Na]+; 100V
Name: Symplocoside like saponin 1a
Class: CLASS1 Flavonoid
Class: CLASS2 Flavonol
Class: CLASS3 Symplocoside
Formula: C59H94O21
Exact mass: 1138.63 
Ion type: [M+Na]+
Precursor m/z: 1161
m/z	relative intensity
993	100
539	100
407	100
377	100
317	100
245	100
