Mass spectrum: Cyanidin 3-sophoroside; MS2; QqQ; [M]+; 25V
Name: Cyanidin 3-sophoroside
Class: CLASS1 Flavonoid
Class: CLASS2 Anthocyanin
Class: CLASS3 Cyanidin glycoside
Formula: C27H31O16
Exact mass: 611.16 
Ion type: [M]+
Precursor m/z: 611
m/z	relative intensity
287	100
