Mass spectrum: 7-O-Deoxyhexosyl(1,2)hexosylluteolin; MS2; QIT; [M-H]-; 0.3->2V
Name: 7-O-Deoxyhexosyl(1,2)hexosylluteolin
Class: CLASS1 Flavonoid
Class: CLASS2 Flavone
Class: CLASS3 Luteolin glycoside
Formula: C27H30O15
Exact mass: 594.16 
Ion type: [M-H]-
Precursor m/z: 593
m/z	relative intensity
447	43
285	100
