Mass spectrum: Kaempferol-3-O-sophoroside-feruloyl; MS2; QIT; [M-H]-; 0.3->2V
Name: Kaempferol-3-O-sophoroside-feruloyl
Class: CLASS1 Flavonoid
Class: CLASS2 Flavonol
Class: CLASS3 Kaempferol glycoside
Formula: C37H38O19
Exact mass: 786.20 
Ion type: [M-H]-
Precursor m/z: 785
m/z	relative intensity
609	100
429	2
284	25
