Mass spectrum: 7,15-Dihydroxy-4,4,14-trimethyl-3,11-dioxochol-8-en-24-oic acid; MS2; QIT; [M-H]-; 30->50%
Name: 7,15-Dihydroxy-4,4,14-trimethyl-3,11-dioxochol-8-en-24-oic acid
Class: CLASS1 Other
Class: CLASS2 Other
Class: CLASS3 Other
Formula: C27H40O6
Exact mass: 460.28 
Ion type: [M-H]-
Precursor m/z: 459
m/z	relative intensity
459	100
441	86
423	7
415	26
397	11
300	69
299	44
285	100
