Mass spectrum: 1,5-Dicaffeoylquinic acid; MS2; QqQ; [M-H]-; 35
Name: 1,5-Dicaffeoylquinic acid
Class: CLASS1 Phenylpropanoid
Class: CLASS2 Phenylpropanoid ester
Class: CLASS3 Quinic acid
Formula: C25H24O12
Exact mass: 516.13 
Ion type: [M-H]-
Precursor m/z: 515
m/z	relative intensity
515	60
353	100
335	7
191	5
