Mass spectrum: Amarogentin; MS2; QqQ; [M+H]+; n.d.
Name: Amarogentin
Class: CLASS1 Terpenoid
Class: CLASS2 Iridoid
Class: CLASS3 Amarogentin
Formula: C29H30O13
Exact mass: 586.17 
Ion type: [M+H]+
Precursor m/z: 587
m/z	relative intensity
229	100
