Mass spectrum: Paclitaxel; MS2; QqQ; [M+H]+; 25V
Name: Paclitaxel
Class: CLASS1 Terpenoid
Class: CLASS2 Diterpenoid
Class: CLASS3 Paclitaxel
Formula: C47H51N1O14
Exact mass: 853.33 
Ion type: [M+H]+
Precursor m/z: 854
m/z	relative intensity
105	5
268	21
286	100
327	18
387	12
509	14
551	10
569	21
776	5
