Mass spectrum: (epi)Catechin-(epi)catechin-(epi)catechin-(epi)catechin-(epi)catechin-(epi)catechin; MS2; QIT; [M+H]+; 20->25V
Name: (epi)Catechin-(epi)catechin-(epi)catechin-(epi)catechin-(epi)catechin-(epi)catechin
Class: CLASS1 Tannin
Class: CLASS2 Proanthocyanidin
Formula: C90H74O36
Exact mass: 1730.40 
Ion type: [M+H]+
Precursor m/z: 1731
m/z	relative intensity
1441	100
1143	100
1155	100
867	100
579	100
