Mass spectrum: Syringic acid hexoside ; MS2; QIT; [M-H]-; n.d.
Name: Syringic acid hexoside
Class: CLASS1 Phenylpropanoid
Class: CLASS2 Phenylpropanoid monomer
Formula: C15H20O10
Exact mass: 360.11 
Ion type: [M-H]-
Precursor m/z: 359
m/z	relative intensity
197	100
182	4
167	4
123	5
