Mass spectrum: Galloyloxypaeoniflorin; MS2; Q-TOF; [M-H]-; 20->80V
Name: Galloyloxypaeoniflorin
Class: CLASS1 Terpenoid
Class: CLASS2 Monoterpenoid
Class: CLASS3 Paeoniflorin
Formula: C30H32O16
Exact mass: 648.17 
Ion type: [M-H]-
Precursor m/z: 647
m/z	relative intensity
509	100
491	100
399	100
313	100
271	100
211	100
169	100
137	100
125	100
