Mass spectrum: Glucosidetathione(reduced form); MS2; Q-TOF; [M+H]+; 15->55V
Name: Glucosidetathione(reduced form)
Name: GSH
Class: CLASS1 Amino acid
Class: CLASS2 Peptide
Class: CLASS3 Oligo peptide
Formula: C10H17N3O6S1
Exact mass: 307.0838063
Ion type: [M+H]+
Precursor m/z: 308.0935
m/z	relative intensity
308.0935	60
291.0638	4
233.0589	22
187.0521	4
179.0493	75
170.03	4
162.0233	58
144.0115	18
142.033	17
130.0475	21
116.0147	28
114.0346	3
86.9842	3
84.0368	58
76.0142	100
58.9865	4
