Mass spectrum: Naringenin 7-O-glucoside; MS2; QIT; [M-H]-; n.d.
Name: Naringenin 7-O-glucoside
Class: CLASS1 Flavonoid
Class: CLASS2 Chalcone
Class: CLASS3 Naringenin glycoside
Formula: C21H22O10
Exact mass: 434.12 
Ion type: [M-H]-
Precursor m/z: 433
m/z	relative intensity
271	100
