Mass spectrum: Cyanidin 3-glucoside; MS2; QqQ; [M-2H]2-; 40V
Name: Cyanidin 3-glucoside
Class: CLASS1 Flavonoid
Class: CLASS2 Anthocyanin
Class: CLASS3 Cyanidin glycoside
Formula: C21H21O11
Exact mass: 449.11 
Ion type: [M-2H]2-
Precursor m/z: 447
m/z	relative intensity
447	100
