Mass spectrum: Paeoniflorin; MS2; Q-TOF; [M-H]-; 20->80V
Name: Paeoniflorin
Class: CLASS1 Terpenoid
Class: CLASS2 Monoterpenoid
Class: CLASS3 Paeoniflorin
Formula: C23H28O11
Exact mass: 480.16 
Ion type: [M-H]-
Precursor m/z: 479
m/z	relative intensity
449	100
317	100
165	100
121	100
327	0
