Mass spectrum: Lambertianin C; MS2; QIT; [M-H]-; 35%
Name: Lambertianin C
Name: Rubusuaviin C
Class: CLASS1 Tannin
Class: CLASS2 Ellagitannin 
Class: CLASS3 Lambertianin
Formula: C123H80O78
Exact mass: 2804.23 
Ion type: [M-H]-
Precursor m/z: 1401
m/z	relative intensity
1869	100
1567	100
1265	100
933	100
631	100
