Mass spectrum: 7-Hydroxyhedysarimpterocarpene B; MS2; QIT; [M-H]-; 48%
Name: 7-Hydroxyhedysarimpterocarpene B
Class: CLASS1 Phenylpropanoid
Class: CLASS2 Pterocarpan
Exact mass: no data
Ion type: [M-H]-
Precursor m/z: 367
m/z	relative intensity
352	100
339	16
325	14
323	38
309	57
300	20
298	29
