Mass spectrum: 2-Deoxy-3-epi-2'b-hydroxyecdysone; MS2; QIT; [M+H]+; 25V
Name: 2-Deoxy-3-epi-2'b-hydroxyecdysone
Class: CLASS1 Terpenoid
Class: CLASS2 Triterpenoid
Class: CLASS3 Ecdysone
Exact mass: no data
Ion type: [M+H]+
Precursor m/z: 447
m/z	relative intensity
429	57
411	100
393	55
375	11
355	3
337	26
313	4
287	36
285	20
269	7
232	8
