Mass spectrum: Ligstroside; MS2; QIT; [M-H]-; n.d.
Name: Ligstroside
Class: CLASS1 Terpenoid
Class: CLASS2 Iridoid
Class: CLASS3 Ligstroside
Formula: C25H32O12
Exact mass: 524.19 
Ion type: [M-H]-
Precursor m/z: 523
m/z	relative intensity
453	100
421	100
361	100
291	100
