Mass spectrum: Jatrorrhizine; MS2; QIT; [M+H]+; 25V
Name: Jatrorrhizine
Class: CLASS1 Alkaloid
Class: CLASS2 Isoquinoline
Class: CLASS3 Jatrorrhizine
Formula: C20H20N1O4
Exact mass: 338.14 
Ion type: [M+H]+
Precursor m/z: 338
m/z	relative intensity
338	81
323	100
308	2
294	7
