Mass spectrum: Dihydroxy-4-methoxyacetophenone; MS2; Q-TOF; [M-H]-; 20->80V
Name: Dihydroxy-4-methoxyacetophenone
Class: CLASS1 Other
Class: CLASS2 Benzoic acid
Class: CLASS3 Acetophenone
Formula: C9H10O4
Exact mass: 182.06 
Ion type: [M-H]-
Precursor m/z: 181
m/z	relative intensity
166	100
151	100
138	100
107	100
