Mass spectrum: 1-Malonyl-3,5-dicaffeoylquinic acid; MS2; QIT; [M-H]-; 40%
Name: 1-Malonyl-3,5-dicaffeoylquinic acid
Class: CLASS1 Phenylpropanoid
Class: CLASS2 Phenylpropanoid ester
Class: CLASS3 Quinic acid
Exact mass: no data
Ion type: [M-H]-
Precursor m/z: 601
m/z	relative intensity
557	94
515	96
439	62
395	100
377	4
353	2
233	8
