Mass spectrum: 2-Deoxy-2'b-hydroxyecdysone-3-O-glucopyranoside; MS2; QIT; [M+H]+; 25V
Name: 2-Deoxy-2'b-hydroxyecdysone-3-O-glucopyranoside
Class: CLASS1 Terpenoid
Class: CLASS2 Triterpenoid
Class: CLASS3 Ecdysone glycoside
Exact mass: no data
Ion type: [M+H]+
Precursor m/z: 627
m/z	relative intensity
609	27
591	13
573	4
465	53
447	32
429	100
411	33
393	4
355	68
287	14
