Mass spectrum: Verabenzoamine; MS2; QIT; [M+H]+; 0.6V
Name: Verabenzoamine
Class: CLASS1 Other
Class: CLASS2 Other
Class: CLASS3 Other
Formula: C41H59N1O12
Exact mass: 757.40 
Ion type: [M+H]+
Precursor m/z: 758.8
m/z	relative intensity
740.6	100
558.4	100
456.4	100
438.4	100
420.3	100
