Mass spectrum: Caffeoyl-hexose; MS2; QqQ; [M-H]-; 20eV
Name: Caffeoyl-hexose
Class: CLASS1 Phenylpropanoid
Class: CLASS2 Phenylpropanoid glycoside
Class: CLASS3 Caffeoyl glucoside
Exact mass: 0.00 
Ion type: [M-H]-
Precursor m/z: 160.9
m/z	relative intensity
160.8	37
132.8	100
131.9	42
104.6	10
