Mass spectrum: Quercetin-dihexoside-rhamnoside-isomer; MS2; Q-TOF; [M-H]-; 15->55V
Name: Quercetin-dihexoside-rhamnoside-isomer
Class: CLASS1 Flavonoid
Class: CLASS2 Flavonol
Class: CLASS3 Quercetin glycoside
Exact mass: 0
Ion type: [M-H]-
Precursor m/z: 772.2
m/z	relative intensity
772.2	4
771.204	100
609.1489	30
463.0894	3
462.08	11
301.0365	10
300.031	5
299.0186	11
