Mass spectrum: 5-Hydroxy-l,7-bis(4-hydroxy-3-methoxyphenyl)-3-heptanone; MS2; QIT; [M-H]-; 32V
Name: 5-Hydroxy-l,7-bis(4-hydroxy-3-methoxyphenyl)-3-heptanone
Class: CLASS1 Other
Class: CLASS2 Alkane
Exact mass: no data
Ion type: [M-H]-
Precursor m/z: 389
m/z	relative intensity
329	100
347	100
