Mass spectrum: Di-hydroxyl tanshinone IIB; MS2; QIT; [M+H]+; 45->60%
Name: Di-hydroxyl tanshinone IIB
Class: CLASS1 Terpenoid
Class: CLASS2 Diterpenoid
Class: CLASS3 Tanshinone
Exact mass: no data
Ion type: [M+H]+
Precursor m/z: 343
m/z	relative intensity
328	3
325	100
315	24
307	6
300	5
297	6
283	4
