Mass spectrum: Caffeine; MS2; QIT; [M+H]+; 20%
Name: Caffeine
Class: CLASS1 Alkaloid
Class: CLASS2 Xanthine
Class: CLASS3 Caffeine
Formula: C8H10N4O2
Exact mass: 194.08 
Ion type: [M+H]+
Precursor m/z: 195
m/z	relative intensity
195	100
138	100
