Mass spectrum: 5-Hydroxy-1-(3,4-dihydroxy-5-methoxyphenyl)-7-(4-hydroxy-3-methoxyphenyl)-3-heptanone; MS2; QIT; [M-H]-; 32V
Name: 5-Hydroxy-1-(3,4-dihydroxy-5-methoxyphenyl)-7-(4-hydroxy-3-methoxyphenyl)-3-heptanone
Class: CLASS1 Other
Class: CLASS2 Alkane
Exact mass: no data
Ion type: [M-H]-
Precursor m/z: 389
m/z	relative intensity
209	100
195	100
371	100
179	100
