Mass spectrum: Feruloyl-hexose; MS2; Q-TOF; [M-H]-; 15->55V
Name: Feruloyl-hexose
Class: CLASS1 Phenylpropanoid
Class: CLASS2 Phenylpropanoid glycoside
Class: CLASS3 Sinapoyl glycoside
Exact mass: 0
Ion type: [M-H]-
Precursor m/z: 355.1045
m/z	relative intensity
355.1045	25
281.7834	3
235.0746	3
217.0494	6
193.0463	62
178.0204	11
176.0489	4
175.0371	100
161.0124	3
160.0153	74
149.0599	17
134.0369	37
132.0177	25
101.017	3
89.0185	4
