Mass spectrum: 4-Hydroxy-n-buthyl glucosinolate; MS2; Q-TOF; [M-H]-; 15->55V
Name: 4-Hydroxy-n-buthyl glucosinolate
Class: CLASS1 Glucosinolate
Class: CLASS2 Aliphatic glucosinolate
Formula: C11H21N1O10S2
Exact mass: 391.0606879
Ion type: [M-H]-
Precursor m/z: 390.0532
m/z	relative intensity
390.0532	100
96.9607	49
95.9518	31
79.958	4
74.9924	28
