Mass spectrum: Oleuropein glucoside; MS2; QIT; [M-H]-; n.d.
Name: Oleuropein glucoside
Class: CLASS1 Other
Class: CLASS2 Carboxylic acid
Class: CLASS3 Other
Exact mass: no data
Ion type: [M-H]-
Precursor m/z: 701
m/z	relative intensity
507	100
539	100
443	100
377	100
307	100
275	100
