Mass spectrum: Hexyl glucosinolate, putative; MS2; Q-TOF; [M-H]-; 15->55V
Name: Hexyl glucosinolate, putative
Class: CLASS1 Glucosinolate
Class: CLASS2 Aliphatic glucosinolate
Exact mass: 0
Ion type: [M-H]-
Precursor m/z: 402.0895
m/z	relative intensity
402.0895	100
96.9592	63
95.9526	45
79.9573	12
74.9906	43
