Mass spectrum: Furohyperforin hydroperoxide; MS2; in source CID; [M]+; 12.3V
Name: Furohyperforin hydroperoxide
Class: CLASS1 Other
Class: CLASS2 Phenol
Class: CLASS3 Phloroglucinol
Formula: C35H52O6
Exact mass: 568.38 
Ion type: [M]+
Precursor m/z: 569
m/z	relative intensity
569	89
425	6
365	25
309	100
149	34
123	38
