Mass spectrum: Procyanidin trimer; MS2; Q-TOF; [M+H]+; 20V
Name: Procyanidin trimer
Class: CLASS1 Tannin
Class: CLASS2 Proanthocyanidin
Formula: C45H38O18
Exact mass: 866.21 
Ion type: [M+H]+
Precursor m/z: 866.2058
m/z	relative intensity
867.2136	100
