Mass spectrum: Galloyl quinic acid; MS2; Q-TOF; [M-H]-; 20V
Name: Galloyl quinic acid
Class: CLASS1 Phenylpropanoid
Class: CLASS2 Phenylpropanoid ester
Class: CLASS3 Quinic acid
Formula: C14H16O10
Exact mass: 344.07 
Ion type: [M-H]-
Precursor m/z: 344.0743
m/z	relative intensity
343.067	100
191.0483	100
687.139	100
