Mass spectrum: Caffeoyl-N phenylalanine; MS2; QqQ; [M-H]-; 40eV
Name: Caffeoyl-N phenylalanine
Class: CLASS1 Amino acid
Class: CLASS2 Phenylalanine
Exact mass: 0.00 
Ion type: [M-H]-
Precursor m/z: 325.8
m/z	relative intensity
163.9	5
160.9	11
147	11
134.9	100
132.9	15
102.6	19
90.6	10
