Mass spectrum: Kaempferol-3-O-b-glucoside-7-O-a-rhamnoside; MS2; Q-TOF; [M+H]+; 15->55V
Name: Kaempferol-3-O-b-glucoside-7-O-a-rhamnoside
Class: CLASS1 Flavonoid
Class: CLASS2 Flavonol
Class: CLASS3 Kaempferol glycoside
Formula: C27H30O15
Exact mass: 594.1584703
Ion type: [M+H]+
Precursor m/z: 595.1795
m/z	relative intensity
595.1795	11
449.119	17
433.1205	30
303.0526	16
288.0643	3
287.0565	100
153.0176	3
85.0228	3
