Mass spectrum: Isorhamnetin rutinose; MS2; Q-TOF; [M+H]+; 20V
Name: Isorhamnetin rutinose
Class: CLASS1 Flavonoid
Class: CLASS2 Flavonol
Class: CLASS3 Isorhamnetin glycoside
Formula: C28H32O16
Exact mass: 624.17 
Ion type: [M+H]+
Precursor m/z: 624.169
m/z	relative intensity
625.1781	100
317.0666	100
302.0436	100
