Mass spectrum: Ginsenoside Rd; MS2; QIT; [M-H]-; 50%
Name: Ginsenoside Rd
Name: Gypenoside VIII
Class: CLASS1 Terpenoid
Class: CLASS2 Triterpenoid
Class: CLASS3 Ginsenoside
Formula: C48H82O18
Exact mass: 946.55 
Ion type: [M-H]-
Precursor m/z: 947.17
m/z	relative intensity
946.3	100
784	100
766	8
621.7	39
460.5	4
