Mass spectrum: Isorhamnetin sophorose; MS2; Q-TOF; [M+H]+; 20V
Name: Isorhamnetin sophorose
Class: CLASS1 Flavonoid
Class: CLASS2 Flavonol
Class: CLASS3 Isorhamnetin glycoside
Formula: C28H32O17
Exact mass: 640.16 
Ion type: [M+H]+
Precursor m/z: 640.1639
m/z	relative intensity
641.1705	100
479.1162	100
317.0653	100
302.0445	100
285.0413	100
