Mass spectrum: 3,4-Dicaffeoylquinic acids; MS2; QqQ; [M-H]-; 40eV
Name: 3,4-Dicaffeoylquinic acids
Name: Cyclohexanecarboxylic acid, 3,4-bis[[3-(3,4-dihydroxyphenyl)-1-oxo-2-propenyl]oxy]-1,5-dihydroxy-, (1S,3R,4R,5R)-
Class: CLASS1 Phenylpropanoid
Class: CLASS2 Phenylpropanoid ester
Class: CLASS3 Quinic acid
Formula: C25H24N0O12
Exact mass: 516.13 
Ion type: [M-H]-
Precursor m/z: 514.7
m/z	relative intensity
191	51
178.9	88
172.9	100
134.8	57
92.7	10
