Mass spectrum: 4-Hydroxybenzyl glucosinolate; MS2; QIT; [M-H]-; 0.8V
Name: 4-Hydroxybenzyl glucosinolate
Name: Glucosinalbin
Class: CLASS1 Glucosinolate
Class: CLASS2 Benzyl glucosinolate
Formula: C14H19N1O10S2
Exact mass: 425.05 
Ion type: [M-H]-
Precursor m/z: 424
m/z	relative intensity
344	6
276	4
275	30
261	1
259	100
246	13
244	2
241	44
228	6
199	7
195	7
182	28
139	7
