Mass spectrum: Suspensaside A; MS2; QIT; [M-H]-; 45%
Name: Suspensaside A
Class: CLASS1 Phenylpropanoid
Class: CLASS2 Phenylpropanoid glycoside
Class: CLASS3 Suspensaside
Formula: C29H34O15
Exact mass: 622.19 
Ion type: [M-H]-
Precursor m/z: 621
m/z	relative intensity
621	100
487	100
469	92
459	55
441	25
427	36
397	9
367	3
179	28
