Mass spectrum: Lutein; MS2; QIT; [M-H]-; 43.2->8V
Name: Lutein
Class: CLASS1 Terpenoid
Class: CLASS2 Carotenoid
Class: CLASS3 Lutein
Formula: C40H56O2
Exact mass: 568.43 
Ion type: [M-H]-
Precursor m/z: 567
m/z	relative intensity
567	100
