Mass spectrum: Genipin-gentiobioside; MS2; Q-TOF; [M-H]-; 10->20V
Name: Genipin-gentiobioside
Class: CLASS1 Terpenoid
Class: CLASS2 Iridoid
Class: CLASS3 Genipin glycoside
Formula: C23H34O15
Exact mass: 550.19 
Ion type: [M-H]-
Precursor m/z: 549.1797
m/z	relative intensity
550.2	8
549.2	30
517.2	5
388.1	2
323.1	2
227.1	5
226.1	25
225.1	100
207.1	2
179.1	5
124.1	5
123	25
101	10
