Mass spectrum: Fibleucin; MS2; QIT; [M+H]+; 25V
Name: Fibleucin
Class: CLASS1 Other
Class: CLASS2 Other
Class: CLASS3 Fibleucin
Formula: C20H20O6
Exact mass: 356.13 
Ion type: [M+H]+
Precursor m/z: 357
m/z	relative intensity
371	30
357	100
339	11
