Mass spectrum: Cyanidin glycoside, tentative; MS2; QqQ; [M]+; 15->30V
Name: Cyanidin glycoside, tentative
Class: CLASS1 Flavonoid
Class: CLASS2 Anthocyanin
Class: CLASS3 Cyanidin glycoside
Formula: C38H42O20Cl1
Exact mass: 818.23 
Ion type: [M]+
Precursor m/z: 1185.6
m/z	relative intensity
1023.6	100
449.2	100
287.2	100
