Mass spectrum: 4-Methylenemiltirone; MS2; QIT; [M+H]+; 30%
Name: 4-Methylenemiltirone
Class: CLASS1 Terpenoid
Class: CLASS2 Diterpenoid
Class: CLASS3 tanshinone
Exact mass: 0.00 
Ion type: [M+H]+
Precursor m/z: 267
m/z	relative intensity
267	78
249	100
225	33
