Mass spectrum: Salsolinol; MS2; QIT; [M+H]+; 20->40V
Name: Salsolinol
Class: CLASS1 Alkaloid
Class: CLASS2 Isoquinoline
Class: CLASS3 Salsolinol
Formula: C10H13N1O2
Exact mass: 179.09 
Ion type: [M+H]+
Precursor m/z: 180
m/z	relative intensity
180	90
163	100
151	4
145	41
137	11
