Mass spectrum: a-Allocryptopine; MS2; QIT; [M+H]+; 35%
Name: a-Allocryptopine
Class: CLASS1 Alkaloid
Class: CLASS2 Isoquinoline
Class: CLASS3 Cryptopine
Formula: C21H23N1O5
Exact mass: 369.16 
Ion type: [M+H]+
Precursor m/z: 370
m/z	relative intensity
370	100
352	100
