Mass spectrum: [6]-Gingerol; MS2; QIT; [M+H]+; 5kV
Name: [6]-Gingerol
Class: CLASS1 Other
Class: CLASS2 Phenol
Class: CLASS3 Gingerol
Formula: C17H26O4
Exact mass: 294.18 
Ion type: [M+H]+
Precursor m/z: 295.3
m/z	relative intensity
277.4	100
317.3	100
312.4	100
611	100
295.3	100
