Mass spectrum: 9-Dihydro-19-acetoxy-10-deacetylbaccatin III; MS2; in source CID; [M-H]-; 40V
Name: 9-Dihydro-19-acetoxy-10-deacetylbaccatin III
Class: CLASS1 Terpenoid
Class: CLASS2 Diterpenoid
Class: CLASS3 Baccatin
Exact mass: no data
Ion type: [M-H]-
Precursor m/z: 604
m/z	relative intensity
649	100
639	100
603	100
543	100
501	100
