Mass spectrum: Nuzhenide; MS2; QIT; [M-H]-; n.d.
Name: Nuzhenide
Class: CLASS1 Other
Class: CLASS2 Other
Class: CLASS3 Other
Exact mass: no data
Ion type: [M-H]-
Precursor m/z: 685
m/z	relative intensity
523	100
453	100
421	100
299	100
