Mass spectrum: Quercetin 3-beta-D-galactopyranoside; MS2; QIT; [M-H]-; 35%
Name: Quercetin 3-beta-D-galactopyranoside
Name: hyperoside
Class: CLASS1 Flavonoid
Class: CLASS2 Flavonol
Class: CLASS3 Quercetin glycoside
Formula: C21H20O12
Exact mass: 464.10 
Ion type: [M-H]-
Precursor m/z: 463.2
m/z	relative intensity
301.2	100
