Mass spectrum: Di-Coumaroyl hexose; MS2; Q-TOF; [M-H]-; 20V
Name: Di-Coumaroyl hexose
Class: CLASS1 Phenylpropanoid
Class: CLASS2 Phenylpropanoid glycoside
Class: CLASS3 Coumaroyl glycoside
Formula: C24H24O10
Exact mass: 472.14 
Ion type: [M-H]-
Precursor m/z: 472.1369
m/z	relative intensity
471.1288	100
427.1464	100
325.0983	100
307.0796	100
247.064	100
163.0397	100
145.0303	100
119.0501	100
