Mass spectrum: Delphinidin 3-O-(6-O-p-coumaroyl)glucoside; MS2; QqQ; [M]+; n.d.
Name: Delphinidin 3-O-(6-O-p-coumaroyl)glucoside
Class: CLASS1 Flavonoid
Class: CLASS2 Anthocyanin
Class: CLASS3 Delphinidin glycoside
Formula: C30H27O14
Exact mass: 611.14 
Ion type: [M]+
Precursor m/z: 611
m/z	relative intensity
611	50
303	100
