Mass spectrum: 1,3-Dicaffeoylquinic acid glucoside; MS2; QIT; [M-H]-; 40%
Name: 1,3-Dicaffeoylquinic acid glucoside
Class: CLASS1 Phenylpropanoid
Class: CLASS2 Phenylpropanoid ester
Class: CLASS3 Quinic acid
Exact mass: no data
Ion type: [M-H]-
Precursor m/z: 677
m/z	relative intensity
515	100
497	7
353	15
341	8
335	7
