Mass spectrum: gamma-L-Glutamyl-L-leucine; MS2; QIT; [M+H]+; 25V
Name: gamma-L-Glutamyl-L-leucine
Class: CLASS1 Amino acid
Class: CLASS2 Peptide
Class: CLASS3 Oligo peptide
Formula: C11H20N2O5
Exact mass: 260.14 
Ion type: [M+H]+
Precursor m/z: 261.2
m/z	relative intensity
261.2	8
244.2	31
198.1	43
132.1	66
102.1	10
86.1	100
84.1	49
