Mass spectrum: Caffeine; MS2; QqQ; [M+H]+; 15eV
Name: Caffeine
Name: 1H-Purine-2,6-dione, 3,7-dihydro-1,3,7-trimethyl-
Class: CLASS1 Alkaloid
Class: CLASS2 Xanthine
Class: CLASS3 Caffeine
Formula: C8H10N4O2
Exact mass: 194.08 
Ion type: [M+H]+
Precursor m/z: 194.9
m/z	relative intensity
195	100
137.8	98
109.7	17
