Mass spectrum: Sanguiin H6; MS2; QIT; [M-H]-; 35%
Name: Sanguiin H6
Class: CLASS1 Tannin
Class: CLASS2 Ellagitannin
Class: CLASS3 Sanguiin
Formula: C82H54O52
Exact mass: 1870.16 
Ion type: [M-H]-
Precursor m/z: 1869
m/z	relative intensity
1567	100
1265	100
933	100
631	100
