Mass spectrum: Kaempferol-trirhamnoside; MS2; Q-TOF; [M-H]-; 15->55V
Name: Kaempferol-trirhamnoside
Class: CLASS1 Flavonoid
Class: CLASS2 Flavonol
Class: CLASS3 Kaempferol glycoside
Exact mass: 0
Ion type: [M-H]-
Precursor m/z: 724.1959
m/z	relative intensity
724.1959	3
723.2136	100
723.0463	10
577.1556	72
430.1094	17
285.0412	4
284.0337	28
283.0318	18
193.0536	3
