Mass spectrum: Quercetin-3-O-alpha-arabinofuranoside; MS2; QqQ; [M+H]+; 24->30V
Name: Quercetin-3-O-alpha-arabinofuranoside
Class: CLASS1 Flavonoid
Class: CLASS2 Flavonol
Class: CLASS3 Quercetin glycoside
Formula: C20H18O11
Exact mass: 434.08 
Ion type: [M+H]+
Precursor m/z: 435
m/z	relative intensity
435	100
303	100
229	100
165	100
153	100
137	100
