Mass spectrum: Mudanpioside E; MS2; Q-TOF; [M-H]-; 20->80V
Name: Mudanpioside E
Class: CLASS1 Other
Class: CLASS2 Benzoic acid
Class: CLASS3 Mudanosid
Formula: C24H30O13
Exact mass: 526.17 
Ion type: [M-H]-
Precursor m/z: 525
m/z	relative intensity
495	100
363	100
345	100
327	100
311	100
177	100
167	100
165	100
123	100
