Mass spectrum: Ergonovine; MS2; QIT; [M+H]+; 25->30V
Name: Ergonovine
Class: CLASS1 Alkaloid
Class: CLASS2 Ergot
Class: CLASS3 Ergonovine
Formula: C19H23N3O2
Exact mass: 325.18 
Ion type: [M+H]+
Precursor m/z: 308.1
m/z	relative intensity
308.1	100
283.2	20
265.2	38
197.1	5
