Mass spectrum: Carthamidin-7-O-glucuronide; MS2; QIT; [M-H]-; 40%
Name: Carthamidin-7-O-glucuronide
Class: CLASS1 Flavonoid
Class: CLASS2 Flavone
Class: CLASS3 Carthamidin glycoside
Formula: C21H20O12
Exact mass: 464.10 
Ion type: [M-H]-
Precursor m/z: 463
m/z	relative intensity
301	10
287	100
269	3
175	5
