Mass spectrum: Trimer proanthocyanin; MS2; QqQ; [M-H]-; n.d.
Name: Trimer proanthocyanin
Class: CLASS1 Tannin
Class: CLASS2 Proanthocyanidin
Formula: C45H37O18
Exact mass: 865.20 
Ion type: [M-H]-
Precursor m/z: 865
m/z	relative intensity
865	50
739	100
577	100
451	100
407	100
289	100
