Mass spectrum: Quercetin-3-beta-D-glucoside; MS2; QIT; [M-H]-; 28%
Name: Quercetin-3-beta-D-glucoside
Class: CLASS1 Flavonoid
Class: CLASS2 Flavonol
Class: CLASS3 Quercetin glycoside
Formula: C21H20O12
Exact mass: 464.10 
Ion type: [M-H]-
Precursor m/z: 463
m/z	relative intensity
301	100
