Mass spectrum: Scopolin; MS2; Q-TOF; [M+H]+; 15->55V
Name: Scopolin
Name: 7-beta-glucosylscopoletin
Class: CLASS1 Phenylpropanoid
Class: CLASS2 Coumarin
Class: CLASS3 Scopolin
Formula: C16H18O9
Exact mass: 354.0950822
Ion type: [M+H]+
Precursor m/z: 355.105
m/z	relative intensity
355.105	5
325.1026	4
272.7798	4
193.0523	100
178.0265	21
149.0574	4
137.0634	9
133.0331	13
94.0486	4
