Mass spectrum: Sinapoylmalate; MS2; Q-TOF; [M+H]+; 15->55V
Name: Sinapoylmalate
Class: CLASS1 Phenylpropanoid
Class: CLASS2 Phenylpropanoid ester
Class: CLASS3 Sinapoyl malate
Formula: C15H16O9
Exact mass: 340.0794321
Ion type: [M+H]+
Precursor m/z: 737.0967
m/z	relative intensity
737.0967	100
621.0841	3
603.0723	30
513.0236	9
487.0616	8
415.0218	6
397.0071	52
353.0202	4
335.0077	11
281.0015	14
262.9882	4
207.0707	10
175.0417	6
