Mass spectrum: 7-Methylthio-n-heptyl glucosinolate; MS2; Q-TOF; [M-H]-; 15->55V
Name: 7-Methylthio-n-heptyl glucosinolate
Class: CLASS1 Glucosinolate
Class: CLASS2 Aliphatic glucosinolate
Formula: C15H29N1O9S3
Exact mass: 463.1004445
Ion type: [M-H]-
Precursor m/z: 462.0917
m/z	relative intensity
462.0917	100
96.9607	44
95.9527	27
79.9581	5
74.992	18
