Mass spectrum: tetra-Galloyl-b-D-glucopyranose; MS2; QIT-TOF; [M+K-H2O]+; nd
Name: tetra-Galloyl-b-D-glucopyranose
Class: CLASS1 Tannin
Class: CLASS2 Gallotannin
Class: CLASS3 Galloyl glycoside
Formula: C34H28O22
Exact mass: 788.00 
Ion type: [M+K-H2O]+
Precursor m/z: 809
m/z	relative intensity
100	657
100	639
100	487
100	469
100	961
100	0
