Mass spectrum: Liquiritin apioside; MS2; QIT; [M-H]-; 35%
Name: Liquiritin apioside
Name: 4H-1-Benzopyran-4-one, 2-[4-[(2-O-D-apio-.beta.-D-furanosyl-.beta.-D-glucopyranosyl)oxy]phenyl]-2,3-dihydro-7-hydroxy-, (2S)-
Class: CLASS1 Flavonoid
Class: CLASS2 Flavanone
Formula: C26H30O13
Exact mass: 550.17 
Ion type: [M-H]-
Precursor m/z: 549
m/z	relative intensity
429	84
417	4
297	13
255	100
