Mass spectrum: Glutathione (oxidized form); MS2; Q-TOF; [M-H]-; 15->55V
Name: Glutathione (oxidized form)
Class: CLASS1 Amino acid
Class: CLASS2 Peptide
Class: CLASS3 Oligo peptide
Exact mass: 0
Ion type: [M-H]-
Precursor m/z: 611.1432
m/z	relative intensity
611.1432	100
610.9725	3
610.8625	9
338.046	5
306.0734	42
304.068	10
272.0809	17
254.0789	13
210.0879	8
179.0421	7
143.0451	20
128.0359	12
