Mass spectrum: 4-Dimethoxycinnamoyl-5-feruloylquinic acid; MS2; QqQ; [M-H]-; 20eV
Name: 4-Dimethoxycinnamoyl-5-feruloylquinic acid
Class: CLASS1 Phenylpropanoid
Class: CLASS2 Phenylpropanoid ester
Class: CLASS3 Quinic acid
Exact mass: 0.00 
Ion type: [M-H]-
Precursor m/z: 556.7
m/z	relative intensity
556.9	19
381	100
349	43
207	19
172.9	45
