Mass spectrum: Tetragalloyl glucose; MS2; Q-TOF; [M-H]-; 20V
Name: Tetragalloyl glucose
Name: 2,3,4,6-Tetra-O-galloyl-D-glucose
Class: CLASS1 Tannin
Class: CLASS2 Gallotannin
Class: CLASS3 Galloyl glycoside
Formula: C34H28O22
Exact mass: 788.11 
Ion type: [M-H]-
Precursor m/z: 788.1072
m/z	relative intensity
787.0949	100
617.079	100
465.0653	100
635.0864	100
169.0139	100
393.0429	100
