Mass spectrum: Isorhamnetin-3-glucoside-7-rhamnoside; MS2; Q-TOF; [M-H]-; 15->55V
Name: Isorhamnetin-3-glucoside-7-rhamnoside
Class: CLASS1 Flavonoid
Class: CLASS2 Flavonol
Class: CLASS3 Isorhamnetin glycoside
Exact mass: 0
Ion type: [M-H]-
Precursor m/z: 623.1587
m/z	relative intensity
623.1587	100
477.1061	31
461.1084	27
460.1048	22
445.0777	3
315.0518	40
314.0421	5
313.0362	39
300.0317	5
299.0145	3
270.0145	4
