Mass spectrum: Spermidine-caffeoyl-hydroxyferuloyl-sinapyl; MS2; Q-TOF; [M+H]+; 15->55V
Name: Spermidine-caffeoyl-hydroxyferuloyl-sinapyl
Class: CLASS1 Alkaloid
Class: CLASS2 Polyamine
Class: CLASS3 Spermidine
Exact mass: 0
Ion type: [M+H]+
Precursor m/z: 706.3052
m/z	relative intensity
706.3052	100
544.2736	72
530.2421	18
514.2657	44
496.2448	20
338.2072	20
250.1167	20
207.0753	16
193.0657	16
