Mass spectrum: Astaxanthin diester 12:0/12:0; MS2; QIT; [M-H]-; 43.2->8V
Name: Astaxanthin diester 12:0/12:0
Class: CLASS1 Terpenoid
Class: CLASS2 Carotenoid
Class: CLASS3 Astaxanthin
Exact mass: no data
Ion type: [M-H]-
Precursor m/z: 959
m/z	relative intensity
959	100
