Mass spectrum: Decatyl asperulosidic acid methyl ester; MS2; QIT; [M-H]-; 50%
Name: Decatyl asperulosidic acid methyl ester
Class: CLASS1 Terpenoid
Class: CLASS2 Iridoid
Class: CLASS3 Asperuloside
Exact mass: no data
Ion type: [M-H]-
Precursor m/z: 404
m/z	relative intensity
449	100
403	100
241	100
