Mass spectrum: Pentagalloylglucose; MS2; Q-TOF; [M-H]-; 20V
Name: Pentagalloylglucose
Class: CLASS1 Tannin
Class: CLASS2 Gallotannin
Class: CLASS3 Galloyl glycoside
Formula: C41H32O26
Exact mass: 940.12 
Ion type: [M-H]-
Precursor m/z: 940.1182
m/z	relative intensity
939.1108	100
769.0878	100
617.0743	100
169.0127	100
469.0475	100
