Mass spectrum: Caffeoyl-N-tyrosine; MS2; QqQ; [M+H]+; 30eV
Name: Caffeoyl-N-tyrosine
Name: L-Tyrosine, N-[(2E)-3-(3,4-dihydroxyphenyl)-1-oxo-2-propen-1-yl]-
Class: CLASS1 Amino acid
Class: CLASS2 Tyrosine
Formula: C18H17N1O6
Exact mass: 343.11 
Ion type: [M+H]+
Precursor m/z: 343.8
m/z	relative intensity
162.9	100
144.8	42
134.8	37
116.7	21
88.6	7
