Mass spectrum: 4-Caffeoyl-5-dimethoxycinnamoylquinic acid; MS2; QqQ; [M-H]-; 20eV
Name: 4-Caffeoyl-5-dimethoxycinnamoylquinic acid
Class: CLASS1 Phenylpropanoid
Class: CLASS2 Phenylpropanoid ester
Class: CLASS3 Quinic acid
Exact mass: 0.00 
Ion type: [M-H]-
Precursor m/z: 542.8
m/z	relative intensity
542.8	50
381	100
207.1	40
172.9	60
