Mass spectrum: (S)-2-hydroxy-3-butenyl glucosinolate; MS2; QIT; [M-H]-; 0.8V
Name: (S)-2-hydroxy-3-butenyl glucosinolate
Name: Epiprogoitrin
Class: CLASS1 Other
Class: CLASS2 Other
Class: CLASS3 Other
Formula: C11H19N1O10S2
Exact mass: 389.05 
Ion type: [M-H]-
Precursor m/z: 388
m/z	relative intensity
332	29
308	4
301	4
275	12
260	4
259	100
241	18
226	5
210	29
199	4
195	17
192	8
170	3
154	7
146	24
139	3
136	45
129	12
