Mass spectrum: Theobromine; MS2; QqQ; [M+H]+; 30eV
Name: Theobromine
Name: 1H-Purine-2,6-dione, 3,7-dihydro-3,7-dimethyl-
Class: CLASS1 Alkaloid
Class: CLASS2 Xanthine
Class: CLASS3 Theobromine
Formula: C7H8N4O2
Exact mass: 180.06 
Ion type: [M+H]+
Precursor m/z: 180.8
m/z	relative intensity
181	15
137.8	13
121.9	27
107.8	30
82.6	25
68.5	44
66.5	100
