Mass spectrum: Laudanine; MS2; QIT; [M+H]+; 20->40V
Name: Laudanine
Class: CLASS1 Alkaloid
Class: CLASS2 Benzylisoquinoline
Class: CLASS3 Laudanine
Formula: C20H25N1O4
Exact mass: 343.18 
Ion type: [M+H]+
Precursor m/z: 344
m/z	relative intensity
344	100
206	100
