Mass spectrum: 6-Methylsulfinyl-n-hexyl glucosinolate; MS2; Q-TOF; [M+H]+; 15->55V
Name: 6-Methylsulfinyl-n-hexyl glucosinolate
Name: glucohesperin
Class: CLASS1 Glucosinolate
Class: CLASS2 Aliphatic glucosinolate
Exact mass: 0
Ion type: [M+H]+
Precursor m/z: 522.028
m/z	relative intensity
522.028	11
442.071	20
280.0137	100
231.0355	10
167.038	11
166.0261	12
152.009	6
140.0029	6
139.0025	12
