Mass spectrum: 3-Indolylmethyl glucosinolate; MS2; QIT; [M-H]-; 0.8V
Name: 3-Indolylmethyl glucosinolate
Name: Glucobrassicin
Class: CLASS1 Glucosinolate
Class: CLASS2 Indole glucosinolate
Formula: C16H20N2O9S2
Exact mass: 448.06 
Ion type: [M-H]-
Precursor m/z: 447
m/z	relative intensity
447	14
429	6
367	7
291	15
285	5
275	19
269	32
260	7
259	100
256	9
251	12
241	39
224	10
206	7
205	24
195	5
163	1
139	12
122	9
