Mass spectrum: Daidzein O-di-hexoside malonylated I; MS2; QqQ; [M+H]+; 27%
Name: Daidzein O-di-hexoside malonylated I
Class: CLASS1 Flavonoid
Class: CLASS2 Isoflavone
Class: CLASS3 Daidzein glycoside
Exact mass: no data
Ion type: [M+H]+
Precursor m/z: 665
m/z	relative intensity
503	100
255	100
