Mass spectrum: Neophyllocactin; MS2; QIT; [M+H]+; 25->30%
Name: Neophyllocactin
Class: CLASS1 Alkaloid
Class: CLASS2 Betalain
Class: CLASS3 Neophyllocactin
Formula: C27H26N2O16
Exact mass: 634.13 
Ion type: [M+H]+
Precursor m/z: 635
m/z	relative intensity
635	100
387	100
343	11
