Mass spectrum: Nicotine-1-N-oxide; MS2; QIT; [M+H]+; 25%
Name: Nicotine-1-N-oxide
Class: CLASS1 Alkaloid
Class: CLASS2 Nicotine
Class: CLASS3 Nicotine
Formula: C10H14N2O1
Exact mass: 178.11 
Ion type: [M+H]+
Precursor m/z: 179
m/z	relative intensity
179	100
148	100
131	100
