Mass spectrum: D-Glucopyranose 6-(hydrogen propanedioate) 1-(3-phenoxybenzoate); MS2; QqQ; [M+H]+; 10->40V
Name: D-Glucopyranose 6-(hydrogen propanedioate) 1-(3-phenoxybenzoate)
Class: CLASS1 Other
Class: CLASS2 Other
Class: CLASS3 Other
Formula: C22H22O11
Exact mass: 462.12 
Precursor m/z: 461
m/z	relative intensity
461	25
417	38
357	9
255	6
227	10
213	50
203	14
113	100
