Mass spectrum: Danshenxinkun A; MS2; QIT; [M+H]+; 20->50%
Name: Danshenxinkun A
Class: CLASS1 Terpenoid
Class: CLASS2 Diterpenoid
Class: CLASS3 Danshenxinkun
Formula: C18H16O4
Exact mass: 296.10 
Ion type: [M+H]+
Precursor m/z: 297
m/z	relative intensity
279	100
269	20
261	10
251	50
223	15
209	4
