Mass spectrum: Feruloyl-N-tryptophan; MS2; QqQ; [M-H]-; 20eV
Name: Feruloyl-N-tryptophan
Class: CLASS1 Amino acid
Class: CLASS2 Tryptophan
Exact mass: 0.00 
Ion type: [M-H]-
Precursor m/z: 378.8
m/z	relative intensity
379	63
228.9	89
185.9	18
176.8	25
174.9	69
156.9	72
148.9	100
141.9	28
99.9	34
