Mass spectrum: Berberine; MS2; QIT; [M+H]+; 20->40V
Name: Berberine
Class: CLASS1 Alkaloid
Class: CLASS2 Isoquinoline
Class: CLASS3 Berberine
Formula: C20H18N1O4
Exact mass: 336.12 
Ion type: [M+H]+
Precursor m/z: 336
m/z	relative intensity
336	100
320	100
