Mass spectrum: Methylenetanshinquinone; MS2; QIT; [M+H]+; 20->50%
Name: Methylenetanshinquinone
Class: CLASS1 Terpenoid
Class: CLASS2 Diterpenoid
Class: CLASS3 Tanshinquinone
Formula: C18H14O3
Exact mass: 278.09 
Ion type: [M+H]+
Precursor m/z: 279
m/z	relative intensity
279	5
261	100
233	15
205	8
