Mass spectrum: 3-Caffeoyl-5-dimethoxycinnamoylquinic acids; MS2; QqQ; [M+H]+; 30eV
Name: 3-Caffeoyl-5-dimethoxycinnamoylquinic acids
Name: Cyclohexanecarboxylic acid, 3-[[3-(3,4-dihydroxyphenyl)-1-oxo-2-propen-1-yl]oxy]-5-[[3-(3,4-dimethoxyphenyl)-1-oxo-2-propen-1-yl]oxy]-1,4-dihydroxy-, (1S,3R,4R,5R)-
Class: CLASS1 Phenylpropanoid
Class: CLASS2 Phenylpropanoid ester
Class: CLASS3 Quinic acid
Formula: C27H28N0O12
Exact mass: 544.16 
Ion type: [M+H]+
Precursor m/z: 544.7
m/z	relative intensity
177	100
145.1	13
