Mass spectrum: Cyanidin 3-O-beta-galactoside; MS2; QIT; [M]+; 39V
Name: Cyanidin 3-O-beta-galactoside
Class: CLASS1 Flavonoid
Class: CLASS2 Anthocyanin
Class: CLASS3 Cyanidin glycoside
Formula: C21H21O11Cl1
Exact mass: 449.11 
Ion type: [M]+
Precursor m/z: 449
m/z	relative intensity
287	100
