Mass spectrum: Nornicotine; MS2; QIT; [M+H]+; 25%
Name: Nornicotine
Class: CLASS1 Alkaloid
Class: CLASS2 Nicotine
Class: CLASS3 Nornicotine
Formula: C9H12O2
Exact mass: 152.08 
Ion type: [M+H]+
Precursor m/z: 149
m/z	relative intensity
149	100
132	100
130	100
