Mass spectrum: p-Coumaric acid; MS2; Q-TOF; [M+H]+; 15->55V
Name: p-Coumaric acid
Class: CLASS1 Phenylpropanoid
Class: CLASS2 Phenylpropanoid monomer
Class: CLASS3 Coumaric acid
Formula: C9H8O3
Exact mass: 164.0473441
Ion type: [M+H]+
Precursor m/z: 165.0488
m/z	relative intensity
165.0488	6
147.0453	100
119.0514	51
91.0557	33
77.0365	3
