Mass spectrum: 4-Methylsuphinylbutyl glucosinolate; MS2; QIT; [M-H]-; 30->35%
Name: 4-Methylsuphinylbutyl glucosinolate
Name: Glucoraphanin
Class: CLASS1 Glucosinolate
Class: CLASS2 Aliphatic glucosinolate
Formula: C12H23N1O10S3
Exact mass: 437.05 
Ion type: [M-H]-
Precursor m/z: 436
m/z	relative intensity
436	100
372	100
275	100
259	100
227	100
195	100
178	100
