Mass spectrum: 6-Methylthio-n-hexyl glucosinolate; MS2; Q-TOF; [M-H]-; 15->55V
Name: 6-Methylthio-n-hexyl glucosinolate
Name: glucolesquerellin
Class: CLASS1 Glucosinolate
Class: CLASS2 Aliphatic glucosinolate
Formula: C14H27N1O9S3
Exact mass: 449.0847945
Ion type: [M-H]-
Precursor m/z: 448.0753
m/z	relative intensity
448.0753	100
96.959	80
95.9513	39
80.9644	3
79.9554	8
74.9919	22
