Mass spectrum: Epicatechin trimer; MS2; Q-TOF; [M-H]-; 15->55V
Name: Epicatechin trimer
Class: CLASS1 Tannin
Class: CLASS2 Proanthocyanidin
Exact mass: 0
Ion type: [M-H]-
Precursor m/z: 865.1988
m/z	relative intensity
865.1988	100
739.1798	6
713.1542	5
695.1025	3
577.1293	10
576.1221	3
575.1201	9
449.0934	3
425.0906	3
413.0916	5
407.0758	15
289.0717	8
287.0526	13
245.0479	4
243.0327	4
161.0266	4
125.0226	15
