Mass spectrum: 1-O-b-D-Glucopyranosyl sinapate; MS2; Q-TOF; [M-H]-; 15->55V
Name: 1-O-b-D-Glucopyranosyl sinapate
Class: CLASS1 Phenylpropanoid
Class: CLASS2 Phenylpropanoid glycoside
Class: CLASS3 Sinapoyl glycoside
Formula: C15H16O9
Exact mass: 340.0794321
Ion type: [M-H]-
Precursor m/z: 385.1169
m/z	relative intensity
385.1169	35
223.06	100
208.0367	20
205.0492	23
193.0142	10
190.0216	8
179.0719	13
175.0067	3
164.0466	28
149.0234	25
121.0247	8
