Mass spectrum: 4-Hydroxyindol-3-ylmethyl glucosinolate; MS2; Q-TOF; [M-H]-; 15->55V
Name: 4-Hydroxyindol-3-ylmethyl glucosinolate
Class: CLASS1 Glucosinolate
Class: CLASS2 Indole glucosinolate
Exact mass: 0
Ion type: [M-H]-
Precursor m/z: 463.0494
m/z	relative intensity
463.0494	100
267.008	9
96.9614	64
95.9508	13
