Mass spectrum: Cyanidin-3-glucoside p-coumaric; MS2; QqQ; [M]+; 15->30V
Name: Cyanidin-3-glucoside p-coumaric
Class: CLASS1 Flavonoid
Class: CLASS2 Anthocyanin
Class: CLASS3 Cyanidin glycoside
Formula: C30H27O13Cl1
Exact mass: 595.15 
Ion type: [M]+
Precursor m/z: 595.2
m/z	relative intensity
287.2	100
