Mass spectrum: [(3-Phenoxybenzoyl)oxy]-butanedioic acid; MS2; QqQ; [M+H]+; 10->40V
Name: [(3-Phenoxybenzoyl)oxy]-butanedioic acid
Class: CLASS1 Other
Class: CLASS2 Carboxylic acid
Class: CLASS3 Other
Formula: C17H14O7
Exact mass: 330.07 
Precursor m/z: 330
m/z	relative intensity
330	2
329	15
325	1
215	1
214	11
213	100
170	1
169	5
115	14
