Mass spectrum: Tanshinone IIB; MS2; QIT; [M+H]+; 40%
Name: Tanshinone IIB
Name: Phenanthro[1,2-b]furan-10,11-dione, 6,7,8,9-tetrahydro-6-(hydroxymethyl)-1,6-dimethyl-, (6S)-
Class: CLASS1 Terpenoid
Class: CLASS2 Diterpenoid
Class: CLASS3 tanshinone
Formula: C19H18O4
Exact mass: 310.12 
Ion type: [M+H]+
Precursor m/z: 311
m/z	relative intensity
296	13
293	68
283	13
281	20
275	100
269	11
263	13
251	16
