Mass spectrum: Dicaffeoyl-hexose; MS2; QqQ; [M-H]-; 20eV
Name: Dicaffeoyl-hexose
Class: CLASS1 Phenylpropanoid
Class: CLASS2 Phenylpropanoid glycoside
Class: CLASS3 Caffeoyl glucoside
Exact mass: 0.00 
Ion type: [M-H]-
Precursor m/z: 502.8
m/z	relative intensity
502.9	100
322.9	28
161	48
