Mass spectrum: Gomisin F; MS2; QIT; [M+Na]+; 30->54%
Name: Gomisin F
Name: 2-Butenoic acid, 2-methyl-, (6S,7S,8S,13aS)-5,6,7,8-tetrahydro-7-hydroxy-1,2,3,13-tetramethoxy-6,7-dimethylbenzo[3,4]cycloocta[1,2-f][1,3]benzodioxol-8-yl ester, (2Z)-
Class: CLASS1 Phenylpropanoid
Class: CLASS2 Lignan
Formula: C28H34O9
Exact mass: 514.22 
Ion type: [M+Na]+
Precursor m/z: 537
m/z	relative intensity
537	100
515	20
491	100
476	70
