Mass spectrum: Saponin glycoside 5; MS2; QIT; [M-H]-; 35%
Name: Saponin glycoside 5
Class: CLASS1 Other
Class: CLASS2 Other
Class: CLASS3 Other
Exact mass: no data
Ion type: [M-H]-
Precursor m/z: 1513
m/z	relative intensity
1043	100
