Mass spectrum: Pilosine; MS2; LIT; [M+H]+; 15->30V
Name: Pilosine
Class: CLASS1 Alkaloid
Class: CLASS2 Imidazole
Class: CLASS3 Pilosine
Formula: C16H18N2O3
Exact mass: 286.13 
Ion type: [M+H]+
Precursor m/z: 287.1338
m/z	relative intensity
287	51
269	10
223	16
181	18
163	8
121	20
115	15
95	100
