Mass spectrum: Agrimoniin; MS2; Q-TOF; [M-2H]2-; 20V
Name: Agrimoniin
Class: CLASS1 Other
Class: CLASS2 Other
Class: CLASS3 Other
Formula: C82H54O52
Exact mass: 1870.16 
Ion type: [M-2H]2-
Precursor m/z: 1870.1581
m/z	relative intensity
934.0692	100
1265.1743	100
1235.0751	100
783.0746	100
633.0746	100
469.0058	100
300.9975	100
