Mass spectrum: Isorhamnetin-3-rhamnoside-7-glucoside; MS2; Q-TOF; [M-H]-; 15->55V
Name: Isorhamnetin-3-rhamnoside-7-glucoside
Class: CLASS1 Flavonoid
Class: CLASS2 Flavonol
Class: CLASS3 Isorhamnetin glycoside
Exact mass: 0
Ion type: [M-H]-
Precursor m/z: 624.1454
m/z	relative intensity
624.1454	4
623.1382	100
477.0921	10
476.1017	5
461.0878	11
445.0678	4
443.0631	9
433.0707	4
315.0469	19
313.039	8
300.0302	4
297.0049	24
287.0154	4
286.0016	3
269.0101	7
