Mass spectrum: (+)-Catechin; MS2; Q-TOF; [M-H]-; 20->80V
Name: (+)-Catechin
Class: CLASS1 Flavonoid
Class: CLASS2 Flavanol
Class: CLASS3 Catechin
Formula: C15H14O6
Exact mass: 290.08 
Ion type: [M-H]-
Precursor m/z: 289
m/z	relative intensity
245	100
151	100
137	100
109	100
