Mass spectrum: Formononetin; MS2; QIT; [M+H]+; 35%
Name: Formononetin
Name: 4H-1-Benzopyran-4-one, 7-hydroxy-3-(4-methoxyphenyl)-
Class: CLASS1 Flavonoid
Class: CLASS2 Isoflavone
Formula: C16H12O4
Exact mass: 268.07 
Ion type: [M+H]+
Precursor m/z: 269
m/z	relative intensity
254	100
237	39
213	33
107	10
