Mass spectrum: Hedysarimpterocarpene B; MS2; QIT; [M-H]-; 48%
Name: Hedysarimpterocarpene B
Class: CLASS1 Phenylpropanoid
Class: CLASS2 Pterocarpan
Formula: C21H20O5
Exact mass: 352.13 
Ion type: [M-H]-
Precursor m/z: 351
m/z	relative intensity
336	100
