Mass spectrum: Lariciresinol-hexoside; MS2; Q-TOF; [M-H]-; 15->55V
Name: Lariciresinol-hexoside
Class: CLASS1 Phenylpropanoid
Class: CLASS2 Lignan
Class: CLASS3 Lariciresinol glycoside
Exact mass: 0
Ion type: [M-H]-
Precursor m/z: 521.2016
m/z	relative intensity
521.2016	27
359.1491	26
329.1395	100
192.0787	7
178.0608	8
175.075	12
161.0468	3
160.0521	9
