Mass spectrum: 1,7-Dihydroxy-3,9-dimethoxy-10-(3-methylbut-2-enyl)-pterocarpene; MS2; QIT; [M-H]-; 48%
Name: 1,7-Dihydroxy-3,9-dimethoxy-10-(3-methylbut-2-enyl)-pterocarpene
Class: CLASS1 Flavonoid
Class: CLASS2 Pterocarpan
Class: CLASS3 Pterocarpene
Exact mass: no data
Ion type: [M-H]-
Precursor m/z: 381
m/z	relative intensity
366	100
