Mass spectrum: 17-Hydroxycryptotanshinone; MS2; QIT; [M+H]+; 40%
Name: 17-Hydroxycryptotanshinone
Name: Phenanthro[1,2-b]furan-10,11-dione, 1,2,6,7,8,9-hexahydro-1-(hydroxymethyl)-6,6-dimethyl-, (1S)-
Class: CLASS1 Terpenoid
Class: CLASS2 Diterpenoid
Class: CLASS3 tanshinone
Formula: C19H20O4
Exact mass: 312.14 
Ion type: [M+H]+
Precursor m/z: 311
m/z	relative intensity
293	100
283	58
267	60
241	39
