Mass spectrum: Kinetin; MS2; QIT; [M+H]+; n.d.
Name: Kinetin
Name: 6-Furfuryladenine
Class: CLASS1 Other
Class: CLASS2 Other
Class: CLASS3 Kinetin
Formula: C10H9N5O1
Exact mass: 215.08 
Ion type: [M+H]+
Precursor m/z: 216.2
m/z	relative intensity
216.2	6
148.1	100
136.1	14
