Mass spectrum: [10]-Gingerol; MS2; QIT; [M-H]-; 4.5V
Name: [10]-Gingerol
Class: CLASS1 Other
Class: CLASS2 Phenol
Class: CLASS3 Gingerol
Formula: C21H34O4
Exact mass: 350.25 
Ion type: [M-H]-
Precursor m/z: 349.7
m/z	relative intensity
349.7	3
331.3	3
193.2	100
178.6	7
155.7	15
