Mass spectrum: 3-Methylthiopropyl glucosinolate; MS2; QIT; [M-H]-; 0.8V
Name: 3-Methylthiopropyl glucosinolate
Name: Glucoiberverin
Class: CLASS1 Glucosinolate
Class: CLASS2 Aliphatic glucosinolate
Formula: C11H21N1O9S3
Exact mass: 407.04 
Ion type: [M-H]-
Precursor m/z: 406
m/z	relative intensity
406	100
387	11
361	18
347	16
317	12
291	6
281	88
275	34
259	86
243	7
227	85
213	30
195	33
178	13
164	37
146	13
139	24
128	43
115	21
113	8
