Mass spectrum: Kaempferol-3-sophoroside-sinapoyl; MS2; QIT; [M-H]-; 35V
Name: Kaempferol-3-sophoroside-sinapoyl
Class: CLASS1 Flavonoid
Class: CLASS2 Flavonol
Class: CLASS3 Kaempferol glycoside
Formula: C38H40O20
Exact mass: 816.21 
Ion type: [M-H]-
Precursor m/z: 815
m/z	relative intensity
609	100
447	12
489	10
429	100
285	78
