Mass spectrum: N-Desmethylcodeine; MS2; QIT; [M+H]+; 20->40V
Name: N-Desmethylcodeine
Class: CLASS1 Alkaloid
Class: CLASS2 Benzylisoquinoline
Class: CLASS3 Codeine
Formula: C17H19N1O3
Exact mass: 285.14 
Ion type: [M+H]+
Precursor m/z: 286
m/z	relative intensity
286	77
225	35
209	30
191	40
181	46
165	64
153	27
121	27
91	19
44	100
