Mass spectrum: 13-Hydroxypalmatine; MS2; QIT; [M+H]+; 25V
Name: 13-Hydroxypalmatine
Class: CLASS1 Alkaloid
Class: CLASS2 Isoquinoline
Class: CLASS3 Palmatine
Exact mass: no data
Ion type: [M+H]+
Precursor m/z: 368
m/z	relative intensity
368	100
353	52
324	5
