Mass spectrum: Tetramer proanthocyanin; MS2; QqQ; [M-H]-; n.d.
Name: Tetramer proanthocyanin
Class: CLASS1 Tannin
Class: CLASS2 Proanthocyanidin
Formula: C60H50O24
Exact mass: 1154.27 
Ion type: [M-H]-
Precursor m/z: 1153
m/z	relative intensity
1153	50
289	100
