Mass spectrum: 8-Acetonyldihydronitidine; MS2; QIT; [M+H]+; 35%
Name: 8-Acetonyldihydronitidine
Class: CLASS1 Alkaloid
Class: CLASS2 Benzophenanthridine
Class: CLASS3 Nitidine
Formula: C24H23N1O5
Exact mass: 405.16 
Ion type: [M+H]+
Precursor m/z: 428
m/z	relative intensity
348	100
