Mass spectrum: 5-Methylsulfinyl-n-pentyl glucosinolate; MS2; Q-TOF; [M-H]-; 15->55V
Name: 5-Methylsulfinyl-n-pentyl glucosinolate
Name: glucoalyssin
Class: CLASS1 Glucosinolate
Class: CLASS2 Aliphatic glucosinolate
Formula: C13H25N1O10S3
Exact mass: 451.064059
Ion type: [M-H]-
Precursor m/z: 450.0536
m/z	relative intensity
450.0536	100
435.034	3
386.0565	23
259.0133	3
192.0311	7
96.9592	41
95.9511	19
79.958	8
74.9906	9
