Mass spectrum: Caffeoyl-N phenylalanine; MS2; QqQ; [M-H]-; 20eV
Name: Caffeoyl-N phenylalanine
Class: CLASS1 Amino acid
Class: CLASS2 Phenylalanine
Exact mass: 0.00 
Ion type: [M-H]-
Precursor m/z: 325.8
m/z	relative intensity
189.9	25
164	8
160.8	19
146.8	19
134.8	100
