Mass spectrum: Caffeoyl-N-tryptophan; MS2; QqQ; [M+H]+; 30eV
Name: Caffeoyl-N-tryptophan
Class: CLASS1 Amino acid
Class: CLASS2 Tryptophan
Exact mass: 0.00 
Ion type: [M+H]+
Precursor m/z: 366.8
m/z	relative intensity
187.9	13
162.9	100
144.8	28
134.8	19
116.8	11
