Mass spectrum: Mudanpioside A; MS2; Q-TOF; [M-H]-; 20->80V
Name: Mudanpioside A
Class: CLASS1 Other
Class: CLASS2 Benzoic acid
Class: CLASS3 Mudanosid
Formula: C31H34O13
Exact mass: 614.20 
Ion type: [M-H]-
Precursor m/z: 613
m/z	relative intensity
461	100
431	100
165	100
151	100
121	100
