Mass spectrum: N-Methylstylopine; MS2; QIT; [M+H]+; 20->40V
Name: N-Methylstylopine
Class: CLASS1 Alkaloid
Class: CLASS2 Benzylisoquinoline
Class: CLASS3 Stylopine
Formula: C20H19N1O4
Exact mass: 337.13 
Ion type: [M+H]+
Precursor m/z: 338
m/z	relative intensity
338	12
190	100
188	4
