Mass spectrum: Syringic acid derivative; MS2; QIT; [M-H]-; 40%
Name: Syringic acid derivative
Class: CLASS1 Phenylpropanoid
Class: CLASS2 Phenylpropanoid monomer
Exact mass: no data
Ion type: [M-H]-
Precursor m/z: 563
m/z	relative intensity
383	43
365	47
321	2
197	100
