Mass spectrum: Astaxanthin; MS2; QIT; [M+Na]+; 43.2->8V
Name: Astaxanthin
Class: CLASS1 Terpenoid
Class: CLASS2 Carotenoid
Class: CLASS3 Astaxanthin
Formula: C40H52O4
Exact mass: 596.39 
Ion type: [M+Na]+
Precursor m/z: 619
m/z	relative intensity
619	100
