Mass spectrum: Tyramine; MS2; Q-TOF; [M+H]+; 15->55V
Name: Tyramine
Class: CLASS1 Alkaloid
Class: CLASS2 Phenylethylamine
Class: CLASS3 Tyramine
Formula: C8H11N1O1
Exact mass: 137.084064
Ion type: [M+H]+
Precursor m/z: 121.0597
m/z	relative intensity
121.0597	100
103.0481	24
93.065	20
91.0481	23
77.0348	32
