Mass spectrum: Kaempferol-3-pentoside-deoxyhexoside-7-rhamnoside; MS2; Q-TOF; [M-H]-; 15->55V
Name: Kaempferol-3-pentoside-deoxyhexoside-7-rhamnoside
Class: CLASS1 Flavonoid
Class: CLASS2 Flavonol
Class: CLASS3 Kaempferol glycoside
Exact mass: 0
Ion type: [M-H]-
Precursor m/z: 709.1959
m/z	relative intensity
709.1959	100
563.141	59
430.0855	10
285.052	3
284.0352	15
283.0244	22
