Mass spectrum: Angeloylzygadenin; MS2; QIT; [M+H]+; 0.6V
Name: Angeloylzygadenin
Class: CLASS1 Alkaloid
Class: CLASS2 Steroid
Class: CLASS3 Zygadenin
Formula: C32H49N1O8
Exact mass: 575.35 
Ion type: [M+H]+
Precursor m/z: 576.5
m/z	relative intensity
558.4	100
540.4	100
440.4	100
422.3	100
