Mass spectrum: Cyanidin 3-(6-caffeyl)-glucoside; MS2; QIT; [M]+; 25.4V
Name: Cyanidin 3-(6-caffeyl)-glucoside
Class: CLASS1 Flavonoid
Class: CLASS2 Anthocyanin
Class: CLASS3 Cyanidin glycoside
Formula: C30H27O14
Exact mass: 611.14 
Ion type: [M]+
Precursor m/z: 611
m/z	relative intensity
611	100
287	100
