Mass spectrum: Kaempferol hexose; MS2; Q-TOF; [M+H]+; 20V
Name: Kaempferol hexose
Class: CLASS1 Flavonoid
Class: CLASS2 Flavonol
Class: CLASS3 Kaempferol glycoside
Formula: C21H20O11
Exact mass: 448.10 
Ion type: [M+H]+
Precursor m/z: 448.1006
m/z	relative intensity
449.1079	100
287.0557	100
