Mass spectrum: Ergocrystine; MS2; QIT; [M+H]+; 25->30V
Name: Ergocrystine
Class: CLASS1 Alkaloid
Class: CLASS2 Ergot
Class: CLASS3 Ergocryptine
Formula: C35H39N5O5
Exact mass: 609.30 
Ion type: [M+H]+
Precursor m/z: 592.1
m/z	relative intensity
592.1	100
348.1	20
305.2	6
268.1	25
223.1	7
208.1	5
