Mass spectrum: Sinapoylcholine dimer-isomer; MS2; Q-TOF; [M+H]+; 15->55V
Name: Sinapoylcholine dimer-isomer
Class: CLASS1 Phenylpropanoid
Class: CLASS2 Lignan
Class: CLASS3 Sinapoylcholine dimer
Exact mass: 0
Ion type: [M+H]+
Precursor m/z: 310.1707
m/z	relative intensity
310.1707	18
251.0949	100
227.8416	4
209.8268	3
207.0671	15
175.0408	20
147.0417	10
119.0546	14
115.0577	3
111.0168	6
99.5087	3
91.0531	11
