Mass spectrum: Trihydroxyoctadecadienoic acid; MS2; QIT; [M+Na]+; 4.5V
Name: Trihydroxyoctadecadienoic acid
Class: CLASS1 Other
Class: CLASS2 Carboxylic acid
Class: CLASS3 Other
Formula: C18H32O5
Exact mass: 328.22 
Ion type: [M+Na]+
Precursor m/z: 351.2159
m/z	relative intensity
333.2036	100
315.1967	100
245.1517	100
