Mass spectrum: 1-Deoxy-10-deacetyl-7-xylosylpaclitaxel; MS2; in source CID; [M-H]-; 40V
Name: 1-Deoxy-10-deacetyl-7-xylosylpaclitaxel
Class: CLASS1 Terpenoid
Class: CLASS2 Diterpenoid
Class: CLASS3 Paclitaxel
Exact mass: no data
Ion type: [M-H]-
Precursor m/z: 927
m/z	relative intensity
972	100
926	100
284	100
