Mass spectrum: Malonyl-3-Rhamnose-Galactose-Glucose U-Soyasapogenol B; MS2; in source CID; [M+H]+; 70V
Name: Malonyl-3-Rhamnose-Galactose-Glucose U-Soyasapogenol B
Class: CLASS1 Terpenoid
Class: CLASS2 Triterpenoid
Class: CLASS3 Soyasapogenol
Exact mass: no data
Ion type: [M+H]+
Precursor m/z: 1029
m/z	relative intensity
1029	100
