Mass spectrum: Hedysarimcoumestan G; MS2; QIT; [M-H]-; 48%
Name: Hedysarimcoumestan G
Class: CLASS1 Phenylpropanoid
Class: CLASS2 Coumestan
Class: CLASS3 Hedysarimcoumestan
Formula: C21H18O7
Exact mass: 382.11 
Ion type: [M-H]-
Precursor m/z: 381
m/z	relative intensity
366	100
323	6
