Mass spectrum: Ononin; MS2; QIT; [M+H]+; 4.5V
Name: Ononin
Class: CLASS1 Flavonoid
Class: CLASS2 Isoflavone
Class: CLASS3 Ononin
Formula: C22H22O9
Exact mass: 430.13 
Ion type: [M+H]+
Precursor m/z: 431.1354
m/z	relative intensity
269.0812	100
