Mass spectrum: Paclitaxel; MS2; in source CID; [M-H]-; 40V
Name: Paclitaxel
Class: CLASS1 Terpenoid
Class: CLASS2 Diterpenoid
Class: CLASS3 Paclitaxel
Formula: C47H51N1O14
Exact mass: 853.33 
Ion type: [M-H]-
Precursor m/z: 853
m/z	relative intensity
898	100
852	100
792	100
525	100
