Mass spectrum: Isorhamnetin 3-O-galactoside; MS2; QqQ; [M-H]-; 30–>50%
Name: Isorhamnetin 3-O-galactoside
Class: CLASS1 Flavonoid
Class: CLASS2 Flavonol
Class: CLASS3 Isorhamnetin glycoside
Formula: C22H22O12
Exact mass: 478.11 
Ion type: [M-H]-
Precursor m/z: 477
m/z	relative intensity
314	100
