Mass spectrum: 5'-Deoxy-5'-Methylthioadenosine; MS2; Q-TOF; [M+H]+; 15->55V
Name: 5'-Deoxy-5'-Methylthioadenosine
Class: CLASS1 Other
Class: CLASS2 Nucleoside
Class: CLASS3 Adenosine
Exact mass: 0
Ion type: [M+H]+
Precursor m/z: 298.0906
m/z	relative intensity
298.0906	15
282.0518	24
281.0564	8
266.0346	7
265.024	7
256.8522	8
249.9857	11
248.9927	10
216.8297	8
136.0617	100
119.0274	10
73.0379	7
