Mass spectrum: 3-Benzoyloxy-n-propyl glucosinolate; MS2; Q-TOF; [M-H]-; 15->55V
Name: 3-Benzoyloxy-n-propyl glucosinolate
Class: CLASS1 Glucosinolate
Class: CLASS2 Benzyl glucosinolate
Formula: C17H23N2O22S2
Exact mass: 671.0183874
Ion type: [M-H]-
Precursor m/z: 480.0639
m/z	relative intensity
480.0639	100
358.0206	4
259.0138	3
195.9779	13
121.0294	20
96.9607	45
95.9532	17
79.9594	4
74.9917	7
