Mass spectrum: [12]-Gingerol; MS2; QIT; [M+H]+; 5kV
Name: [12]-Gingerol
Class: CLASS1 Other
Class: CLASS2 Phenol
Class: CLASS3 Gingerol
Formula: C23H38O4
Exact mass: 378.28 
Ion type: [M+H]+
Precursor m/z: 379.6
m/z	relative intensity
361.6	100
401.5	100
396.6	100
779.5	100
379.6	100
