Mass spectrum: Orientin; MS2; QIT; [M-H]-; n.d.
Name: Orientin
Class: CLASS1 Flavonoid
Class: CLASS2 Flavone
Class: CLASS3 Luteolin glycoside
Formula: C21H20O11
Exact mass: 448.10 
Ion type: [M-H]-
Precursor m/z: 447
m/z	relative intensity
327	100
357	54
