Mass spectrum: Cyanidin-3-O-glucoside; MS2; QIT; [M]+; 45%
Name: Cyanidin-3-O-glucoside
Class: CLASS1 Flavonoid
Class: CLASS2 Anthocyanin
Class: CLASS3 Cyanidin glycoside
Formula: C21H21O11Cl1
Exact mass: 449.11 
Ion type: [M]+
Precursor m/z: 449
m/z	relative intensity
287.2	100
