Mass spectrum: Cyanidin-3-O-rutinoside; MS2; QIT; [M]+; 45%
Name: Cyanidin-3-O-rutinoside
Class: CLASS1 Flavonoid
Class: CLASS2 Anthocyanin
Class: CLASS3 Cyanidin glycoside
Formula: C27H31O15Cl1
Exact mass: 595.17 
Ion type: [M]+
Precursor m/z: 595.1
m/z	relative intensity
287.2	100
