Mass spectrum: Eriodictyol-7-O-glucuronide; MS2; QIT; [M-H]-; 40%
Name: Eriodictyol-7-O-glucuronide
Class: CLASS1 Flavonoid
Class: CLASS2 Flavanone
Class: CLASS3 Eriodictyol glycoside
Formula: C21H20O12
Exact mass: 464.10 
Ion type: [M-H]-
Precursor m/z: 463
m/z	relative intensity
463	2
301	13
300	4
287	100
175	11
151	7
