Mass spectrum: Myricetin 3-O-glucoside; MS2; QqQ; [M-H]-; n.d.
Name: Myricetin 3-O-glucoside
Name: 4H-1-Benzopyran-4-one, 3-(.beta.-D-glucopyranosyloxy)-5,7-dihydroxy-2-(3,4,5-trihydroxyphenyl)-
Class: CLASS1 Flavonoid
Class: CLASS2 Flavonol
Class: CLASS3 Myricetin glycoside
Formula: C21H19O13
Exact mass: 479.08 
Ion type: [M-H]-
Precursor m/z: 479
m/z	relative intensity
479	50
317	100
179	100
