Mass spectrum: 1,3-Dihydroxy-9-methoxypterocarpene; MS2; QIT; [M-H]-; 48%
Name: 1,3-Dihydroxy-9-methoxypterocarpene
Class: CLASS1 Flavonoid
Class: CLASS2 Pterocarpan
Class: CLASS3 Pterocarpene
Formula: C19H16O3
Exact mass: 292.11 
Ion type: [M-H]-
Precursor m/z: 283
m/z	relative intensity
268	100
