Mass spectrum: Caffeoyl-N-tryptophan; MS2; QqQ; [M+H]+; 15eV
Name: Caffeoyl-N-tryptophan
Class: CLASS1 Amino acid
Class: CLASS2 Tryptophan
Exact mass: 0.00 
Ion type: [M+H]+
Precursor m/z: 366.8
m/z	relative intensity
204.9	20
187.9	9
162.8	100
