Mass spectrum: Procyanidin-dimers; MS2; QIT; [M+H]+; 20%
Name: Procyanidin-dimers
Class: CLASS1 Tannin
Class: CLASS2 Proanthocyanidin
Exact mass: no data
Ion type: [M+H]+
Precursor m/z: 579
m/z	relative intensity
579	100
427	100
409	100
291	100
