Mass spectrum: Chalcan-flavan-dimers; MS2; QIT; [M+H]+; 20%
Name: Chalcan-flavan-dimers
Class: CLASS1 Flavonoid
Class: CLASS2 Chalcone
Class: CLASS3 Chalcone
Exact mass: no data
Ion type: [M+H]+
Precursor m/z: 581
m/z	relative intensity
581	100
563	100
429	100
411	100
291	100
