Mass spectrum: Lactiflorin; MS2; Q-TOF; [M-H]-; 20->80V
Name: Lactiflorin
Class: CLASS1 Terpenoid
Class: CLASS2 Monoterpenoid
Class: CLASS3 Lactiflorin
Formula: C23H26O10
Exact mass: 462.15 
Ion type: [M-H]-
Precursor m/z: 461
m/z	relative intensity
415	100
293	100
233	100
149	100
121	100
