Mass spectrum: Adenosine; MS2; Q-TOF; [M+H]+; 15->55V
Name: Adenosine
Name: 9-b-D-Ribofuranosyladenine
Class: CLASS1 Other
Class: CLASS2 Nucleoside
Class: CLASS3 Adenosine
Formula: C10H13N5O4
Exact mass: 267.0967539
Ion type: [M+H]+
Precursor m/z: 268.1065
m/z	relative intensity
268.1065	14
136.0614	100
119.0337	15
