Mass spectrum: Spermidine-dihydroxyferuloyl-sinapyl; MS2; Q-TOF; [M-H]-; 15->55V
Name: Spermidine-dihydroxyferuloyl-sinapyl
Class: CLASS1 Alkaloid
Class: CLASS2 Polyamine
Class: CLASS3 Spermidine
Exact mass: 0
Ion type: [M-H]-
Precursor m/z: 735.3005
m/z	relative intensity
735.3005	4
734.275	100
568.2287	19
542.2512	13
388.1529	10
373.1302	3
362.1747	5
191.0364	4
179.0733	3
165.0574	14
150.034	5
