Mass spectrum: 3,4-Dihydroxyphenylacetic acid; MS2; QqQ; [M-H]-; n.d.
Name: 3,4-Dihydroxyphenylacetic acid
Name: Benzeneacetic acid, 3,4-dihydroxy-
Class: CLASS1 Other
Class: CLASS2 Carboxylic acid
Class: CLASS3 Acetic acid
Formula: C8H8O4
Exact mass: 168.04 
Ion type: [M-H]-
Precursor m/z: 167
m/z	relative intensity
167	50
125	100
123	100
107	100
99	100
89	100
