Mass spectrum: Spermidine-di-p-coumaroyl; MS2; Q-TOF; [M+H]+; 15->55V
Name: Spermidine-di-p-coumaroyl
Class: CLASS1 Alkaloid
Class: CLASS2 Polyamine
Class: CLASS3 Spermidine
Exact mass: 0
Ion type: [M+H]+
Precursor m/z: 439.2613
m/z	relative intensity
439.2613	7
438.2427	100
421.2183	18
309.101	4
308.0999	8
292.2056	21
218.1248	3
204.1051	34
162.0244	4
147.0446	80
144.0126	3
131.0657	5
130.0645	16
119.0494	16
91.0483	5
76.0149	5
