Mass spectrum: Iso-Mudanpioside H; MS2; Q-TOF; [M-H]-; 20->80V
Name: Iso-Mudanpioside H
Class: CLASS1 Other
Class: CLASS2 Benzoic acid
Class: CLASS3 Mudanpioside
Formula: C30H32O14
Exact mass: 616.18 
Ion type: [M-H]-
Precursor m/z: 615
m/z	relative intensity
585	100
477	100
437	100
281	100
239	100
137	100
