Mass spectrum: Petunidin 3-(6-O-caffeoyl)glucoside; MS2; QqQ; [M]+; n.d.
Name: Petunidin 3-(6-O-caffeoyl)glucoside
Class: CLASS1 Flavonoid
Class: CLASS2 Anthocyanin
Class: CLASS3 Petunidin glycoside
Formula: C31H29O15
Exact mass: 641.15 
Ion type: [M]+
Precursor m/z: 641
m/z	relative intensity
641	50
331	100
