Mass spectrum: Apigenin; MS2; QIT; [M+H]+; 20->60%
Name: Apigenin
Name: 4H-1-Benzopyran-4-one, 5,7-dihydroxy-2-(4-hydroxyphenyl)-
Class: CLASS1 Flavonoid
Class: CLASS2 Flavone
Class: CLASS3 Apigenin
Formula: C15H10O5
Exact mass: 270.05 
Ion type: [M+H]+
Precursor m/z: 271
m/z	relative intensity
271	100
253	1
243	1
225	6
235	1
197	2
229	10
155	2
121	5
123	2
153	32
119	11
163	1
155	2
