Mass spectrum: Quinquenoside R1; MS2; QIT; [M-H]-; 50%
Name: Quinquenoside R1
Class: CLASS1 Terpenoid
Class: CLASS2 Triterpenoid
Class: CLASS3 Quinquenoside
Formula: C56H94O24
Exact mass: 1150.61 
Ion type: [M-H]-
Precursor m/z: 1151.35
m/z	relative intensity
1150.4	100
1108.5	72
1092.3	100
988.5	2
946.3	10
928.1	17
784.1	7
