Mass spectrum: Goshuyuamide; MS2; QqQ; [M+H]+; 30–>50%
Name: Goshuyuamide
Class: CLASS1 Alkaloid
Class: CLASS2 Indoloquinazoline
Class: CLASS3 Goshuyuamide
Formula: C19H19N3O1
Exact mass: 305.15 
Ion type: [M+H]+
Precursor m/z: 306
m/z	relative intensity
290	100
278	100
