Mass spectrum: 3-Butenyl glucosinolate; MS2; QIT; [M-H]-; 0.8V
Name: 3-Butenyl glucosinolate
Name: Gluconapin
Class: CLASS1 Glucosinolate
Class: CLASS2 Aliphatic glucosinolate
Formula: C11H19N1O9S2
Exact mass: 373.05 
Ion type: [M-H]-
Precursor m/z: 372
m/z	relative intensity
292	7
275	13
260	13
259	100
242	4
241	31
227	5
195	11
194	11
163	5
145	5
130	19
119	6
97	102
