Mass spectrum: Cyanidin 3-xylosylrutinoside; MS2; QIT; [M]+; 25.4V
Name: Cyanidin 3-xylosylrutinoside
Class: CLASS1 Flavonoid
Class: CLASS2 Anthocyanin
Class: CLASS3 Cyanidin glycoside
Formula: C32H39O19Cl1
Exact mass: 727.21 
Ion type: [M]+
Precursor m/z: 727
m/z	relative intensity
727	100
581	100
287	100
