Mass spectrum: Zygadenin; MS2; QIT; [M+H]+; 0.6V
Name: Zygadenin
Class: CLASS1 Alkaloid
Class: CLASS2 Steroid
Class: CLASS3 Zygadenin
Formula: C27H43N1O7
Exact mass: 493.30 
Ion type: [M+H]+
Precursor m/z: 494.4
m/z	relative intensity
476.4	100
458.4	100
440.4	100
422.3	100
