Mass spectrum: Imperatorin; MS2; QIT; [M+Na]+; 13->37%
Name: Imperatorin
Class: CLASS1 Phenylpropanoid
Class: CLASS2 Coumarin
Class: CLASS3 Other
Formula: C16H14O4
Exact mass: 270.09 
Ion type: [M+Na]+
Precursor m/z: 293
m/z	relative intensity
293	50
225	100
