Mass spectrum: 6'-Deoxyhexopyranosyl-oleoside; MS2; QIT; [M-H]-; n.d.
Name: 6'-Deoxyhexopyranosyl-oleoside
Class: CLASS1 Other
Class: CLASS2 Carboxylic acid
Class: CLASS3 Other
Exact mass: no data
Ion type: [M-H]-
Precursor m/z: 535
m/z	relative intensity
517	100
491	100
390	100
345	100
325	100
307	100
265	100
