Mass spectrum: Columbin; MS2; QIT; [M+H]+; 25V
Name: Columbin
Class: CLASS1 Terpenoid
Class: CLASS2 Diterpenoid
Class: CLASS3 Columbin
Formula: C20H22O6
Exact mass: 358.14 
Ion type: [M+H]+
Precursor m/z: 359
m/z	relative intensity
373	3
359	40
341	21
313	100
295	12
