Mass spectrum: Quercetin-3-glucoside-7-hexoside; MS2; Q-TOF; [M+H]+; 15->55V
Name: Quercetin-3-glucoside-7-hexoside
Class: CLASS1 Flavonoid
Class: CLASS2 Flavonol
Class: CLASS3 Quercetin glycoside
Exact mass: 0
Ion type: [M+H]+
Precursor m/z: 627.198
m/z	relative intensity
627.198	7
465.1272	11
304.0627	6
303.066	100
