Mass spectrum: 3,5-Diacetoxy-1-(3,4-dihydroxyphenyl)-7-(3,4-dihydroxy-5-methoxyphenyl)heptane; MS2; QIT; [M+H]+; 32V
Name: 3,5-Diacetoxy-1-(3,4-dihydroxyphenyl)-7-(3,4-dihydroxy-5-methoxyphenyl)heptane
Class: CLASS1 Other
Class: CLASS2 Alkane
Exact mass: no data
Ion type: [M+H]+
Precursor m/z: 407
m/z	relative intensity
371	100
389	100
193	100
167	100
217	100
