Mass spectrum: Cyanidin-3-succinylglucoside; MS2; QIT; [M]+; 160V
Name: Cyanidin-3-succinylglucoside
Class: CLASS1 Flavonoid
Class: CLASS2 Anthocyanin
Class: CLASS3 Cyanidin glycoside
Exact mass: no data
Ion type: [M]+
Precursor m/z: 549
m/z	relative intensity
549	100
287	100
449	100
