Mass spectrum: Oleoside; MS2; QIT; [M-H]-; n.d.
Name: Oleoside
Class: CLASS1 Terpenoid
Class: CLASS2 Triterpenoid
Class: CLASS3 Oleanoloyl glycoside
Formula: C16H22O11
Exact mass: 390.12 
Ion type: [M-H]-
Precursor m/z: 389
m/z	relative intensity
371	100
345	100
209	100
165	100
