Mass spectrum: Isoliquiritin apioside; MS2; QIT; [M+H]+; 35%
Name: Isoliquiritin apioside
Name: 2-Propen-1-one, 3-[4-[(2-O-D-apio-.beta.-D-furanosyl-.beta.-D-glucopyranosyl)oxy]phenyl]-1-(2,4-dihydroxyphenyl)-, (2E)-
Class: CLASS1 Flavonoid
Class: CLASS2 Chalcone
Formula: C26H30O13
Exact mass: 550.17 
Ion type: [M+H]+
Precursor m/z: 551
m/z	relative intensity
419	100
257	40
