Mass spectrum: Miltirone; MS2; QIT; [M+H]+; 40%
Name: Miltirone
Name: 3,4-Phenanthrenedione, 5,6,7,8-tetrahydro-8,8-dimethyl-2-(1-methylethyl)-
Class: CLASS1 Terpenoid
Class: CLASS2 Diterpenoid
Class: CLASS3 tanshinone
Formula: C19H22O2
Exact mass: 282.16 
Ion type: [M+H]+
Precursor m/z: 282
m/z	relative intensity
265	100
241	50
237	11
223	70
