Mass spectrum: Glabrol; MS2; QIT; [M+H]+; 35%
Name: Glabrol
Name: 4H-1-Benzopyran-4-one, 2,3-dihydro-7-hydroxy-2-[4-hydroxy-3-(3-methyl-2-buten-1-yl)phenyl]-8-(3-methyl-2-buten-1-yl)-, (2S)-
Class: CLASS1 Flavonoid
Class: CLASS2 Isoflavane
Formula: C25H28O4
Exact mass: 392.20 
Ion type: [M+H]+
Precursor m/z: 393
m/z	relative intensity
337	100
205	15
203	10
