Mass spectrum: Galloyl glucose; MS2; Q-TOF; [M-H]-; 20V
Name: Galloyl glucose
Class: CLASS1 Tannin
Class: CLASS2 Gallotannin
Class: CLASS3 Galloyl glycoside
Formula: C13H16O10
Exact mass: 332.07 
Ion type: [M-H]-
Precursor m/z: 332.0743
m/z	relative intensity
331.0629	100
169.0132	100
271.046	100
211.0223	100
151.0032	100
