Mass spectrum: Oleuropein; MS2; QIT; [M-H]-; n.d.
Name: Oleuropein
Class: CLASS1 Other
Class: CLASS2 Carboxylic acid
Class: CLASS3 Oleuropein
Formula: C25H32O13
Exact mass: 540.18 
Ion type: [M-H]-
Precursor m/z: 539
m/z	relative intensity
377	100
307	100
275	100
345	100
275	100
223	100
153	100
