Mass spectrum: Guaiasylglycerol-beta-feruloyl ether-malonyl-isomer; MS2; Q-TOF; [M-H]-; 15->55V
Name: Guaiasylglycerol-beta-feruloyl ether-malonyl-isomer
Name: F(4-O-b)G-malonyl-isomer
Class: CLASS1 Phenylpropanoid
Class: CLASS2 Lignan
Class: CLASS3 Guaiasylglycerol-feruloyl ether
Exact mass: 0
Ion type: [M-H]-
Precursor m/z: 505.1341
m/z	relative intensity
505.1341	28
389.1244	100
341.1027	3
195.0677	32
193.0509	75
181.0536	6
178.0276	18
165.0569	58
151.0394	7
150.0336	32
149.0624	9
149.0226	3
134.0386	30
122.0417	3
115.0036	7
71.0157	5
