Mass spectrum: 9-Methylsulfinyl-n-nonyl glucosinolate; MS2; Q-TOF; [M-H]-; 15->55V
Name: 9-Methylsulfinyl-n-nonyl glucosinolate
Name: Glucoarabin
Class: CLASS1 Glucosinolate
Class: CLASS2 Aliphatic glucosinolate
Formula: C17H33N1O10S3
Exact mass: 507.1266593
Ion type: [M-H]-
Precursor m/z: 506.1163
m/z	relative intensity
506.1163	100
491.0964	3
442.1217	23
248.0959	5
96.9593	37
95.9519	23
79.9556	4
74.991	7
