Mass spectrum: Ginkgolide C; MS2; QIT; [M-H]-; 30%
Name: Ginkgolide C
Class: CLASS1 Terpenoid
Class: CLASS2 Diterpenoid
Class: CLASS3 Ginkgolide
Formula: C20H24O10
Exact mass: 424.14 
Ion type: [M-H]-
Precursor m/z: 439
m/z	relative intensity
439.1	10
421.1	25
411.1	5
395.1	20
383.1	27
377.1	100
365.1	27
349.1	25
335.1	28
321	27
303.1	20
277.1	13
259.1	17
163.1	5
149.2	6
