Mass spectrum: Paeonol; MS2; Q-TOF; [M-H]-; 20->80V
Name: Paeonol
Class: CLASS1 Other
Class: CLASS2 Benzoic acid
Class: CLASS3 Paeonol
Formula: C9H10O3
Exact mass: 166.06 
Ion type: [M-H]-
Precursor m/z: 165
m/z	relative intensity
150	100
135	100
122	100
91	100
