Mass spectrum: 3'-O-Propionylhamaudol; MS2; QIT; [M+H]+; 13->37%
Name: 3'-O-Propionylhamaudol
Class: CLASS1 Other
Class: CLASS2 Chromone
Class: CLASS3 Hamaudol
Exact mass: no data
Ion type: [M+H]+
Precursor m/z: 333
m/z	relative intensity
333	50
259	100
