Mass spectrum: Limonin; MS2; QqQ; [M+H]+; 30–>50%
Name: Limonin
Class: CLASS1 Terpenoid
Class: CLASS2 Monoterpenoid
Class: CLASS3 Limonin
Formula: C26H30O8
Exact mass: 470.19 
Ion type: [M+H]+
Precursor m/z: 471
m/z	relative intensity
453	100
412	100
396	100
354	100
