Mass spectrum: Kaempferol-hexoside; MS2; Q-TOF; [M+H]+; 15->55V
Name: Kaempferol-hexoside
Class: CLASS1 Flavonoid
Class: CLASS2 Flavonol
Class: CLASS3 Kaempferol glycoside
Exact mass: 0
Ion type: [M+H]+
Precursor m/z: 449.118
m/z	relative intensity
449.118	3
407.7479	3
366.7056	5
303.0567	12
287.056	100
153.022	3
111.0165	5
100.5078	5
99.5112	10
85.0287	4
