Mass spectrum: Methylnissolin 3-glucoside; MS2; QIT; [M+H]+; 4.5V
Name: Methylnissolin 3-glucoside
Class: CLASS1 Other
Class: CLASS2 Other
Class: CLASS3 Other
Formula: C23H26O10
Exact mass: 462.15 
Ion type: [M+H]+
Precursor m/z: 463.1611
m/z	relative intensity
301.1076	100
