Mass spectrum: Ferulic acid; MS2; QqQ; [M+H]+; 15eV
Name: Ferulic acid
Name: 2-Propenoic acid, 3-(4-hydroxy-3-methoxyphenyl)-
Class: CLASS1 Phenylpropanoid
Class: CLASS2 Phenylpropanoid monomer
Class: CLASS3 ferulic acid
Formula: C10H10N0O4
Exact mass: 194.06 
Ion type: [M+H]+
Precursor m/z: 194.9
m/z	relative intensity
194.9	10
176.9	91
148.9	12
144.8	100
116.7	19
