Mass spectrum: Methionine; MS2; Q-TOF; [M+H]+; 15->55V
Name: Methionine
Class: CLASS1 Amino acid
Class: CLASS2 Methionine
Formula: C5H11N1O2S1
Exact mass: 149.0510496
Ion type: [M+H]+
Precursor m/z: 150.0557
m/z	relative intensity
150.0557	27
133.0362	70
104.9571	6
104.0518	100
102.0557	38
87.0275	14
74.0623	14
74.0308	6
74.0178	6
61.0128	21
56.0504	31
