Mass spectrum: 3-Acetoxy-5-hydroxy-1-(4-hydroxy-3-methoxyphenyl)-7-(3,4-dihydroxy-5-methoxyphenyl)heptane; MS2; QIT; [M-H]-; 32V
Name: 3-Acetoxy-5-hydroxy-1-(4-hydroxy-3-methoxyphenyl)-7-(3,4-dihydroxy-5-methoxyphenyl)heptane
Name: Letestuianin B
Class: CLASS1 Phenylpropanoid
Class: CLASS2 Curcumin
Class: CLASS3 Letestuianin
Formula: C21H22O6
Exact mass: 370.14 
Ion type: [M-H]-
Precursor m/z: 369
m/z	relative intensity
219	100
233	100
149	100
175	100
