Mass spectrum: Quercetin-3-rhamnoside-7-glucoside; MS2; Q-TOF; [M-H]-; 15->55V
Name: Quercetin-3-rhamnoside-7-glucoside
Class: CLASS1 Flavonoid
Class: CLASS2 Flavonol
Class: CLASS3 Quercetin glycoside
Exact mass: 0
Ion type: [M-H]-
Precursor m/z: 609.1422
m/z	relative intensity
609.1422	100
549.1261	7
463.0784	15
462.0824	12
447.137	15
447.071	10
446.0957	10
331.1356	32
301.0491	65
300.0428	20
299.0208	75
285.0343	7
271.0574	7
271.0163	15
151.019	10
