Mass spectrum: Sinapoymalate; MS2; Q-TOF; [M-H]-; 15->55V
Name: Sinapoymalate
Class: CLASS1 Phenylpropanoid
Class: CLASS2 Phenylpropanoid ester
Class: CLASS3 Sinapoyl malate
Formula: C15H16O9
Exact mass: 340.0794321
Ion type: [M-H]-
Precursor m/z: 223.059
m/z	relative intensity
223.059	100
208.0352	3
179.0688	4
164.0481	31
149.0222	37
147.0414	3
133.012	4
121.0269	9
115.0009	7
71.0147	9
