Mass spectrum: Arctigenin; MS2; QIT; [M-H]-; 45%
Name: Arctigenin
Class: CLASS1 Phenylpropanoid
Class: CLASS2 Lignan
Class: CLASS3 Arctigenin
Formula: C21H24O6
Exact mass: 372.16 
Ion type: [M-H]-
Precursor m/z: 371
m/z	relative intensity
371	100
356	100
