Mass spectrum: Quercetin 3-beta-D-glucuropyranoside; MS2; QIT; [M-H]-; 35%
Name: Quercetin 3-beta-D-glucuropyranoside
Name: miquelianin
Class: CLASS1 Flavonoid
Class: CLASS2 Flavonol
Class: CLASS3 Quercetin glycoside
Formula: C21H18O13
Exact mass: 478.07 
Ion type: [M-H]-
Precursor m/z: 477.1
m/z	relative intensity
301.2	100
