Mass spectrum: Isorhamnetin-3-rhamnoside-7-glucoside; MS2; Q-TOF; [M+H]+; 15->55V
Name: Isorhamnetin-3-rhamnoside-7-glucoside
Class: CLASS1 Flavonoid
Class: CLASS2 Flavonol
Class: CLASS3 Isorhamnetin glycoside
Exact mass: 0
Ion type: [M+H]+
Precursor m/z: 625.1631
m/z	relative intensity
625.1631	5
463.1131	18
318.0664	3
317.0568	100
302.0356	10
285.0346	3
85.0246	3
