Mass spectrum: 4-Benz-9-p-coumaroyl-deoxy-2-octulopyranosonic acid; MS2; QIT; [M-H]-; 40%
Name: 4-Benz-9-p-coumaroyl-deoxy-2-octulopyranosonic acid
Class: CLASS1 Phenylpropanoid
Class: CLASS2 Phenylpropanoid ester
Class: CLASS3 Other
Exact mass: no data
Ion type: [M-H]-
Precursor m/z: 469
m/z	relative intensity
425	13
347	100
323	5
303	6
275	5
235	20
201	2
187	8
185	7
183	12
163	62
145	61
