Mass spectrum: Isorhamnetin-3-glucoside-7-rhamnoside; MS2; Q-TOF; [M+H]+; 15->55V
Name: Isorhamnetin-3-glucoside-7-rhamnoside
Class: CLASS1 Flavonoid
Class: CLASS2 Flavonol
Class: CLASS3 Isorhamnetin glycoside
Exact mass: 0
Ion type: [M+H]+
Precursor m/z: 625.1701
m/z	relative intensity
625.1701	29
480.1089	3
479.1081	83
318.0576	6
317.0611	100
302.0165	4
129.0472	6
85.0246	7
71.0467	4
