Mass spectrum: Verbascoside; MS2; QIT; [M-H]-; n.d.
Name: Verbascoside
Class: CLASS1 Terpenoid
Class: CLASS2 Iridoid
Class: CLASS3 Verbascoside
Formula: C29H36O15
Exact mass: 624.21 
Ion type: [M-H]-
Precursor m/z: 623
m/z	relative intensity
461	100
315	100
161	100
