Mass spectrum: tri-Coumaroyl spermidine; MS2; Q-TOF; [M+H]+; 20V
Name: tri-Coumaroyl spermidine
Class: CLASS1 Alkaloid
Class: CLASS2 Polyamine
Class: CLASS3 Spermidine
Formula: C34H37N3O6
Exact mass: 583.27 
Ion type: [M+H]+
Precursor m/z: 583.2682
m/z	relative intensity
584.275	100
438.2391	100
292.2036	100
147.0449	100
420.2306	100
275.1763	100
204.1017	100
217.1354	100
318.1834	100
