Mass spectrum: Kanzonol K; MS2; QIT; [M-H]-; 48%
Name: Kanzonol K
Name: 2'-methoxylupalbigenin
Class: CLASS1 Flavonoid
Class: CLASS2 Isoflavone
Formula: C26H28O6
Exact mass: 436.19 
Ion type: [M-H]-
Precursor m/z: 435
m/z	relative intensity
420	100
