Mass spectrum: gamma-L-Glutamyl-L-valine; MS2; QIT; [M+H]+; 25V
Name: gamma-L-Glutamyl-L-valine
Class: CLASS1 Amino acid
Class: CLASS2 Peptide
Class: CLASS3 Oligo peptide
Formula: C10H18N2O5
Exact mass: 246.12 
Ion type: [M+H]+
Precursor m/z: 247.2
m/z	relative intensity
247.2	13
230.1	27
183.9	51
130	17
118.1	100
102.1	7
84.1	23
72.1	41
