Mass spectrum: Galloyl-hexahydroxydiphenoylglucose; MS2; Q-TOF; [M+H]+; 20V
Name: Galloyl-hexahydroxydiphenoylglucose
Class: CLASS1 Tannin
Class: CLASS2 Ellagitannin
Class: CLASS3 Wllagitannin
Formula: C27H22O18
Exact mass: 634.08 
Ion type: [M+H]+
Precursor m/z: 634.0806
m/z	relative intensity
635.0903	100
483.078	100
321.0256	100
303.0144	100
617.0795	100
465.0673	100
447.055	100
429.0471	100
