Mass spectrum: Didehydro-orobanchol1; MS2; QIT; [M+H]+; 18V
Name: Didehydro-orobanchol1
Class: CLASS1 Terpenoid
Class: CLASS2 Sesquiterpenoid
Class: CLASS3 Other
Exact mass: no data
Ion type: [M+H]+
Precursor m/z: 345.3
m/z	relative intensity
345.3	2
327.1	13
283.2	2
254.9	6
230.9	16
203	71
175	89
133.2	9
96.6	100
