Mass spectrum: 1,2-Dihydrotanshinone I; MS2; QIT; [M+H]+; 40%
Name: 1,2-Dihydrotanshinone I
Name: Phenanthro[1,2-b]furan-10,11-dione, 8,9-dihydro-1,6-dimethyl-
Class: CLASS1 Terpenoid
Class: CLASS2 Diterpenoid
Class: CLASS3 tanshinone
Formula: C18H14O3
Exact mass: 278.09 
Ion type: [M+H]+
Precursor m/z: 279
m/z	relative intensity
261	100
251	8
233	6
