Mass spectrum: Petunidin 3-(6-coumaroyl)-glucoside; MS2; QIT; [M]+; 25.4V
Name: Petunidin 3-(6-coumaroyl)-glucoside
Class: CLASS1 Flavonoid
Class: CLASS2 Anthocyanin
Class: CLASS3 Petunidin glycoside
Formula: C31H29O14Cl1
Exact mass: 625.16 
Ion type: [M]+
Precursor m/z: 611
m/z	relative intensity
611	100
303	100
