Mass spectrum: Kaempferol-hexoside-dirhamnoside; MS2; Q-TOF; [M-H]-; 15->55V
Name: Kaempferol-hexoside-dirhamnoside
Class: CLASS1 Flavonoid
Class: CLASS2 Flavonol
Class: CLASS3 Kaempferol glycoside
Exact mass: 0
Ion type: [M-H]-
Precursor m/z: 739.2061
m/z	relative intensity
739.2061	100
739.0352	9
721.0314	4
593.1483	18
431.0938	32
290.9464	4
285.0412	72
284.0335	3
