Mass spectrum: Kaempferol 3-Glucoside; MS2; QIT; [M+H]+; n.d.
Name: Kaempferol 3-Glucoside
Class: CLASS1 Flavonoid
Class: CLASS2 Flavonol
Class: CLASS3 Kaempferol glycoside
Formula: C21H20O11
Exact mass: 448.10 
Ion type: [M+H]+
Precursor m/z: 449
m/z	relative intensity
287	100
