Mass spectrum: Acetone derivative of malvidin-3-O-glucoside; MS2; QqQ; [M]+; n.d.
Name: Acetone derivative of malvidin-3-O-glucoside
Class: CLASS1 Flavonoid
Class: CLASS2 Anthocyanin
Class: CLASS3 Peonidin glycoside
Formula: C25H25O11
Exact mass: 501.14 
Ion type: [M]+
Precursor m/z: 531
m/z	relative intensity
531	50
369	100
353	100
