Mass spectrum: Benzoylpaeoniflorin; MS2; Q-TOF; [M-H]-; 20->80V
Name: Benzoylpaeoniflorin
Class: CLASS1 Terpenoid
Class: CLASS2 Monoterpenoid
Class: CLASS3 Paeoniflorin
Formula: C30H32O12
Exact mass: 584.19 
Ion type: [M-H]-
Precursor m/z: 583
m/z	relative intensity
535	100
431	100
265	100
165	100
121	100
