Mass spectrum: Isorhamnetin glucuronide; MS2; Q-TOF; [M-H]-; 20V
Name: Isorhamnetin glucuronide
Class: CLASS1 Flavonoid
Class: CLASS2 Flavonol
Class: CLASS3 Isorhamnetin glycoside
Formula: C22H20O13
Exact mass: 492.09 
Ion type: [M-H]-
Precursor m/z: 492.0904
m/z	relative intensity
491.0845	100
315.0501	100
300.0288	100
255.0306	100
271.0136	100
151.0045	100
113.025	100
