Mass spectrum: Liquiritin; MS2; QIT; [M+H]+; 35%
Name: Liquiritin
Name: 4H-1-Benzopyran-4-one, 2-[4-(.beta.-D-glucopyranosyloxy)phenyl]-2,3-dihydro-7-hydroxy-, (2S)-
Class: CLASS1 Flavonoid
Class: CLASS2 Flavanone
Formula: C21H22O9
Exact mass: 418.13 
Ion type: [M+H]+
Precursor m/z: 419
m/z	relative intensity
257	100
