Mass spectrum: Theophylline; MS2; QqQ; [M-H]-; 30eV
Name: Theophylline
Name: 1H-Purine-2,6-dione, 3,9-dihydro-1,3-dimethyl-
Class: CLASS1 Alkaloid
Class: CLASS2 Xanthine
Class: CLASS3 Theophylline
Formula: C7H8N4O2
Exact mass: 180.06 
Ion type: [M-H]-
Precursor m/z: 178.8
m/z	relative intensity
179	46
178.2	26
163.7	22
134.8	38
121.7	45
106.7	55
93.6	27
78.4	59
65.6	100
