Mass spectrum: Sinapoylcholine; MS2; Q-TOF; [M+H]+; 15->55V
Name: Sinapoylcholine
Name: Sinapine
Class: CLASS1 Phenylpropanoid
Class: CLASS2 Phenylpropanoid ester
Class: CLASS3 Choline
Formula: C16H24N1O5
Exact mass: 310.1654479
Ion type: [M+H]+
Precursor m/z: 310.1472
m/z	relative intensity
310.1472	27
252.0937	5
251.5526	3
251.0761	100
236.0676	4
207.0617	31
179.0697	4
175.035	51
164.0462	7
163.039	6
162.0298	3
151.0385	3
149.0233	6
147.0423	38
136.0519	3
135.0443	4
134.0361	4
132.0202	5
129.0337	9
119.0474	46
118.041	5
117.0335	3
115.0543	4
107.0492	3
101.0387	3
91.0527	43
89.0386	4
65.0391	3
