Mass spectrum: Benzaldehyde; MS2; QqQ; positive; CE 10 V
Name: Benzaldehyde
Name: Formylbenzene
Name: Almond artificial essential oil
Name: Benzoic aldehyde
Name: Benzenecarbonal
Name: Phenylmethanal
Name: Benzoyl hydride
Class: CLASS1 Other
Class: CLASS2 Other
Class: CLASS3 Other
Formula: C7H6O
Exact mass: 106.041
SMILES: C1=CC=C(C=C1)C=O
InChI: benzaldehyde
Instrument: TQD, Waters
Ion type: [M+H]+
Precursor m/z: 107.1
m/z	relative intensity
79	94
106	137
107	999
