Mass spectrum: L-(-)-Phenylalanine; MS2; QqQ; positive; CE 20 V
Name: L-(-)-Phenylalanine
Name: L-Phe
Name: L-2-Amino-3-phenylpropionic acid
Name: (S)-alpha-Amino-benzenepropanoic acid
Name: (S)-a-Aminohydrocinnamic acid
Class: CLASS1 Amino acid
Class: CLASS2 Phenylalanine
Formula: C9H11NO2
Exact mass: 165.078
SMILES: C1=CC=C(C=C1)CC(C(=O)O)N
InChI: (2S)-2-amino-3-phenylpropanoic acid
Instrument: TQD, Waters
Ion type: [M+H]+
Precursor m/z: 166.17
m/z	relative intensity
119	147
120	999
166	64
