Mass spectrum: myo-Inositol; MS2; QqQ; positive; CE 10 V
Name: myo-Inositol
Name: i-Inositol
Name: meso-Inositol
Name: 1,2,3,4,5,6-Hexahydroxycyclohexane
Name: Cyclohexanehexol
Name: Cyclohexitol
Name: Meat sugar
Name: Phaseomannitol
Name: cis-1,2,3,5-trans-4,6-Cyclohexanehexol
Class: CLASS1 Other
Class: CLASS2 Sugar
Class: CLASS3 Monosaccharide
Formula: C6H12O6
Exact mass: 180.063
SMILES: C1(C(C(C(C(C1O)O)O)O)O)O
InChI: cyclohexane-1,2,3,4,5,6-hexol
Instrument: TQD, Waters
Ion type: [M+H]+
Precursor m/z: 179.67
m/z	relative intensity
138	856
139	341
158	335
159	999
