Mass spectrum: Cinnamyl alcohol; MS2; QqQ; positive; CE 10 V
Name: Cinnamyl alcohol
Name: trans-Cinnamyl alcohol
Name: 3-Phenyl-2-propen-1-ol
Name: Styrylcarbinol
Name: cinnamic alcohol
Name: Styrone
Name: Styryl carbinol
Name: Styryl alcohol
Name: Zimtalcohol
Name: 3-Phenylallyl alcohol
Name: (E)-cinnamyl alcohol
Name: 3-Phenyl-2-propenol
Class: CLASS1 Phenylpropanoid
Class: CLASS2 Phenylpropanoid monomer
Class: CLASS3 Coniferyl alcohol
Formula: C9H10O
Exact mass: 134.073
SMILES: C1=CC=C(C=C1)C=CCO
InChI: (E)-3-phenylprop-2-en-1-ol
Instrument: TQD, Waters
Ion type: [M+H]+
Precursor m/z: 135.16
m/z	relative intensity
79	56
135	999
