Mass spectrum: (+-)-3-Methyl-2-oxovaleric acid sodium salt; MS2; QqQ; positive; CE 20 V
Name: (+-)-3-Methyl-2-oxovaleric acid sodium salt
Class: CLASS1 Other
Class: CLASS2 Carboxylic acid
Class: CLASS3 Valeric acid
Formula: C6H10O3
Exact mass: 130.062
SMILES: CCC(C)C(=O)C(=O)O
InChI: 3-methyl-2-oxopentanoic acid
Instrument: TQD, Waters
Ion type: [M+H]+
Precursor m/z: 130.59
m/z	relative intensity
68	351
69	999
89	122
