Mass spectrum: 2,3-Pyridinedicarboxylic acid; MS2; QqQ; positive; CE 40 V
Name: 2,3-Pyridinedicarboxylic acid
Name: Quinolinic acid
Name: Quinolinate
Class: CLASS1 Other
Class: CLASS2 Carboxylic acid
Class: CLASS3 Quinolinic acid
Formula: C7H5NO4
Exact mass: 167.021
SMILES: C1=CC(=C(N=C1)C(=O)O)C(=O)O
InChI: no data
Instrument: TQD, Waters
Ion type: [M+H]+
Precursor m/z: 168.1
m/z	relative intensity
78	999
84	698
