Mass spectrum: 1,1-Dimethylbiguanide hydrochloride; MS2; QqQ; positive; CE 30 V
Name: 1,1-Dimethylbiguanide hydrochloride
Name: Metformin hydrochloride
Name: Dimethylguanylguanidine
Name: Glucophage
Class: CLASS1 Other
Class: CLASS2 Other
Class: CLASS3 Metformin
Formula: C4H11N5
Exact mass: 129.101
SMILES: CN(C)C(=N)N=C(N)N
InChI: 3-(diaminomethylidene)-1,1-dimethylguanidine
Instrument: TQD, Waters
Ion type: [M+H]+
Precursor m/z: 130.17
m/z	relative intensity
42	66
43	148
45	142
46	413
59	55
60	500
68	39
69	67
70	217
71	999
85	82
88	67
113	46
130	74
