Mass spectrum: Aniline; MS2; QqQ; positive; CE 30 V
Name: Aniline
Name: Benzeneamine
Name: phenylamine
Name: Aminophen
Name: aminobenzene
Name: kyanol
Name: Arylamine
Name: Benzamine
Name: Aminobenzene
Name: Aminophen
Name: Anyvim
Name: Benzidam
Name: Benzidam
Name: Krystallin
Class: CLASS1 Other
Class: CLASS2 Other
Class: CLASS3 Aniline
Formula: C6H7N
Exact mass: 93.057
SMILES: C1=CC=C(C=C1)N
InChI: aniline
Instrument: TQD, Waters
Ion type: [M+H]+
Precursor m/z: 94.07
m/z	relative intensity
50	32
51	225
76	218
77	999
93	60
94	344
