Mass spectrum: 2'-Deoxycytidine-5'-diphosphate sodium salt; MS2; QqQ; positive; CE 40 V
Name: 2'-Deoxycytidine-5'-diphosphate sodium salt
Name: dCDP
Name: 2'-Deoxy-CDP
Class: CLASS1 Other
Class: CLASS2 Nucleotide
Class: CLASS3 Cytidine phosphate
Formula: C9H15N3O10P2
Exact mass: 387.023
SMILES: C1C(C(OC1N2C=CC(=NC2=O)N)COP(=O)(O)OP(=O)(O)O)O
InChI: no data
Instrument: TQD, Waters
Ion type: [M+H]+
Precursor m/z: 388.3
m/z	relative intensity
80	40
104	33
111	214
112	999
