Mass spectrum: 2'-Deoxyuridine-5'-monophosphate disodium salt; MS2; QqQ; positive; CE 60 V
Name: 2'-Deoxyuridine-5'-monophosphate disodium salt
Name: dUMP
Name: 2'-Deoxy-UMP
Name: 2'-deoxyuridylic acid
Class: CLASS1 Other
Class: CLASS2 Nucleotide
Class: CLASS3 Uridine phosphate
Formula: C9H13N2O8P
Exact mass: 308.04
SMILES: C1C(C(OC1N2C=CC(=O)NC2=O)COP(=O)(O)O)O
InChI: [(2R,3S,5R)-5-(2,4-dioxopyrimidin-1-yl)-3-hydroxyoxolan-2-yl]methyl dihydrogen phosphate
Instrument: TQD, Waters
Ion type: [M+H]+
Precursor m/z: 309.26
m/z	relative intensity
53	150
80	285
81	999
