Mass spectrum: D(-)-3-Phosphoglyceric acid disodium salt; MS2; QqQ; positive; CE 30 V
Name: D(-)-3-Phosphoglyceric acid disodium salt
Name: D-Glycerate-3-phosphate disodium salt
Name: (-)-Disodium D-3-phosphoglycerate
Name: 3-phospho-D-glyceric acid
Name: 2-D-Hydroxy-3-phosphonooxy-propanoic acid
Class: CLASS1 Other
Class: CLASS2 Other
Class: CLASS3 Propanoic acid
Formula: C3H7O7P
Exact mass: 185.992
SMILES: C(C(C(=O)O)O)OP(=O)(O)O
InChI: (2R)-2-hydroxy-3-phosphonooxypropanoic acid
Instrument: TQD, Waters
Ion type: [M+H]+
Precursor m/z: 187.15
m/z	relative intensity
42	168
88	57
95	57
98	758
99	999
141	121
