Mass spectrum: Benzamidine hydrochloride hydrate; MS2; QqQ; positive; CE 40 V
Name: Benzamidine hydrochloride hydrate
Name: Amidinobenzene hydrochloride
Name: Benzamidinium chloride
Name: Benzenecarboximidamide hydrochloride
Class: CLASS1 Other
Class: CLASS2 Other
Class: CLASS3 Benzamidine
Formula: C7H8N2
Exact mass: 120.068
SMILES: C1=CC=C(C=C1)C(=N)N
InChI: benzenecarboximidamide
Instrument: TQD, Waters
Ion type: [M+H]+
Precursor m/z: 121.1
m/z	relative intensity
51	33
76	313
77	999
103	239
104	819
121	50
