Mass spectrum: Acetoacetyl coenzyme A sodium salt hydrate ; MS2; QqQ; positive; CE 20 V
Name: Acetoacetyl coenzyme A sodium salt hydrate 
Name: Acetoacetyl-CoANa3
Class: CLASS1 Other
Class: CLASS2 CoA
Formula: C25H40N7O18P3S
Exact mass: 851.136
SMILES: CC(=O)CC(=O)SCCNC(=O)CCNC(=O)C(C(C)(C)COP(=O)(O)OP(=O)(O)OCC1C(C(C(O1) N2C=NC3=C2N=CN=C3N)O)OP(=O)(O)O)O
InChI: no data
Instrument: TQD, Waters
Ion type: [M+H]+
Precursor m/z: 852.59
m/z	relative intensity
852	999
