Mass spectrum: Betaine aldehyde chloride  ; MS2; QqQ; positive; CE 50 V
Name: Betaine aldehyde chloride  
Name: (Formylmethyl)trimethylammonium Chloride
Class: CLASS1 Other
Class: CLASS2 Betain
Class: CLASS3 Betaine aldehyde
Formula: C5H12NO
Exact mass: 102.091
SMILES: C[N+](C)(C)CC=O
InChI: trimethyl-(2-oxoethyl)azanium
Instrument: TQD, Waters
Ion type: [M+H]+
Precursor m/z: 102.08
m/z	relative intensity
58	999
59	184
