Mass spectrum: Adenosine-3',5'-diphosphate Sodium salt; MS2; QqQ; negative; CE 20 V
Name: Adenosine-3',5'-diphosphate Sodium salt
Name: PAP
Name: 3'-Phosphoadenosine-5'-phosphate
Name: adenosine 3',5'-bisphosphate
Name: 3'-Phosphoadenylate
Class: CLASS1 Other
Class: CLASS2 Nucleotide
Class: CLASS3 Adenosine phosphate
Formula: C10H15N5O10P2
Exact mass: 427.029
SMILES: C1=NC2=C(C(=N1)N)N=CN2C3C(C(C(O3)COP(=O)(O)O)OP(=O)(O)O)O
InChI: [(2R,3S,4R,5R)-5-(6-aminopurin-9-yl)-4-hydroxy-2-(phosphonooxymethyl)oxolan-3-yl] dihydrogen phosphate
Instrument: TQD, Waters
Ion type: [M-H]-
Precursor m/z: 426.29
m/z	relative intensity
425	414
426	999
