Mass spectrum: D-(-)-Penicillamine; MS2; QqQ; positive; CE 10 V
Name: D-(-)-Penicillamine
Name: DPA
Name: 3,3-Dimethyl-D-cysteine
Name: 3-Mercapto-D-valine
Name: D-(?)-2-Amino-3-mercapto-3-methylbutanoic acid
Name: beta-Thiovaline
Name: alpha-Amino-beta-methyl-beta-mercaptobutylic Acid
Name: (2S)-2-Amino-3-methyl-3-sulfanylbutanoic acid
Name: Cupripen
Name: Kuprenil
Name: Depen
Name: Perdolat
Class: CLASS1 Other
Class: CLASS2 Other
Class: CLASS3 Penicillamine
Formula: C5H11NO2S
Exact mass: 149.051
SMILES: CC(C)(C(C(=O)O)N)S
InChI: (2S)-2-amino-3-methyl-3-sulfanylbutanoic acid
Instrument: TQD, Waters
Ion type: [M+H]+
Precursor m/z: 149.11
m/z	relative intensity
70	434
71	121
100	48
107	72
115	53
117	87
125	115
148	137
149	999
