Mass spectrum: 2'-Deoxyinosine; MS2; QqQ; negative; CE 10 V
Name: 2'-Deoxyinosine
Name: dI
Name: 9-(2-Deoxy-beta-D-ribofuranosyl)hypoxanthine
Name: Hypoxantindeoxyriboside
Class: CLASS1 Other
Class: CLASS2 Other
Class: CLASS3 Inosine
Formula: C10H12N4O4
Exact mass: 252.085
SMILES: C1C(C(OC1N2C=NC3=C2NC=NC3=O)CO)O
InChI: 9-[(2R,4S,5R)-4-hydroxy-5-(hydroxymethyl)oxolan-2-yl]-3H-purin-6-one
Instrument: TQD, Waters
Ion type: [M-H]-
Precursor m/z: 251.23
m/z	relative intensity
250	97
251	999
