Mass spectrum: Gibberellin A4; MS2; QqQ; negative; CE 50 V
Name: Gibberellin A4
Name: Gibberellic acid A4
Name: Gibbane-1,10-dicarboxylic acid, 2,4a-dihydroxy-1-methyl-8-methylene-, 1,4a-lactone, (1alpha,2beta,4aalpha,4bbeta,10beta)-
Class: CLASS1 Terpenoid
Class: CLASS2 Diterpenoid
Class: CLASS3 Gibberellin
Formula: C19H24O5
Exact mass: 332.162
SMILES: CC12C(CCC3(C1C(C45C3CCC(C4)C(=C)C5)C(=O)O)OC2=O)O
InChI: no data
Instrument: TQD, Waters
Ion type: [M-H]-
Precursor m/z: 331.37
m/z	relative intensity
43	999
73	60
212	167
213	639
255	57
269	58
285	76
330	66
331	106
