Mass spectrum: L-Homocarnosine; MS2; QqQ; negative; CE 10 V
Name: L-Homocarnosine
Name: GABA-His
Name: gamma-Aminobutyryl-L-histidine
Name: gamma-aminobutyrylhistidine
Class: CLASS1 Amino acid
Class: CLASS2 Carnosine
Formula: C10H16N4O3
Exact mass: 240.122
SMILES: C1=C(NC=N1)CC(C(=O)O)NC(=O)CCCN
InChI: 2-(4-aminobutanoylamino)-3-(3H-imidazol-4-yl)propanoic acid
Instrument: TQD, Waters
Ion type: [M-H]-
Precursor m/z: 239.26
m/z	relative intensity
238	39
239	999
