Mass spectrum: L-Glutathione (reduced form); MS2; QqQ; positive; CE 30 V
Name: L-Glutathione (reduced form)
Name: GSH
Name: gamma-Glu-Cys-Gly
Name: gamma-L-Glutamyl-L-cysteinyl-glycine
Class: CLASS1 Amino acid
Class: CLASS2 Peptide
Class: CLASS3 Oligopeptide
Formula: C10H17N3O6S
Exact mass: 307.083
SMILES: C(CC(=O)NC(CS)C(=O)NCC(=O)O)C(C(=O)O)N
InChI: (2S)-2-amino-5-[[(2R)-1-(carboxymethylamino)-1-oxo-3-sulfanylpropan-2-yl]amino]-5-oxopentanoic acid
Instrument: TQD, Waters
Ion type: [M+H]+
Precursor m/z: 307.35
m/z	relative intensity
75	54
76	232
83	290
84	999
129	147
130	398
131	136
162	31
176	72
177	265
178	61
179	112
211	35
230	54
231	170
235	44
257	37
308	41
