Mass spectrum: Fusaric acid; MS2; QqQ; positive; CE 60 V
Name: Fusaric acid
Name: Fusarate
Name: Fusarinic acid
Name: 5-Butylpicolinic acid
Name: 5-butylpyridine-3-carboxylic acid
Class: CLASS1 Other
Class: CLASS2 Carboxylic acid
Class: CLASS3 Fusaric acid
Formula: C10H13NO2
Exact mass: 179.094
SMILES: CCCCC1=CN=C(C=C1)C(=O)O
InChI: 5-butylpyridine-2-carboxylic acid
Instrument: TQD, Waters
Ion type: [M+H]+
Precursor m/z: 180.2
m/z	relative intensity
29	33
39	98
40	35
41	94
55	50
64	228
65	999
66	198
77	37
79	33
90	40
91	455
92	521
133	37
