Mass spectrum: Fusaric acid; MS2; QqQ; positive; CE 40 V
Name: Fusaric acid
Name: Fusarate
Name: Fusarinic acid
Name: 5-Butylpicolinic acid
Name: 5-butylpyridine-3-carboxylic acid
Class: CLASS1 Other
Class: CLASS2 Carboxylic acid
Class: CLASS3 Fusaric acid
Formula: C10H13NO2
Exact mass: 179.094
SMILES: CCCCC1=CN=C(C=C1)C(=O)O
InChI: 5-butylpyridine-2-carboxylic acid
Instrument: TQD, Waters
Ion type: [M+H]+
Precursor m/z: 180.2
m/z	relative intensity
54	46
55	83
64	106
65	476
79	103
80	31
90	63
91	226
92	999
93	54
106	68
118	49
119	57
132	56
133	123
134	394
162	35
