Mass spectrum: L-Glutamic acid; MS2; QqQ; positive; CE 30 V
Name: L-Glutamic acid
Name: Glu
Name: L-Glutamate
Name: alpha-Glutamic acid
Name: L-alpha-Aminoglutaric Acid
Name: (S)-2-Aminopentanedioic acid
Name: L-1-Aminopropane-1,3-dicarboxylic Acid
Name: 1-Aminopropane-1,3-dicarboxylic acid
Name: Aciglut
Name: Glusate
Name: Glutacid
Name: Glutaminol
Name: Glutaton
Class: CLASS1 Amino acid
Class: CLASS2 Glutamic acid
Formula: C5H9NO4
Exact mass: 147.053
SMILES: C(CC(=O)O)C(C(=O)O)N
InChI: (2S)-2-aminopentanedioic acid
Instrument: TQD, Waters
Ion type: [M+H]+
Precursor m/z: 148.12
m/z	relative intensity
40	64
41	176
55	65
56	263
83	333
84	999
101	50
102	90
147	35
148	46
