Mass spectrum: (+-)-alpha-Lipoic acid; MS2; QqQ; positive; CE 10 V
Name: (+-)-alpha-Lipoic acid
Name: Lip(S2)
Name: DL-6,8-Thioctic acid
Name: DL-1,2-Dithiolane 3-valeric acid
Name: DL-1,2-Dithiolane-3-pentanoic acid
Name: DL-6,8-Dithiooctanoic acid
Name: 1,2-Dithiolane-3-pentanoic acid
Name: Thioctacid
Name: Thioctsan
Name: Biletan
Name: Tioctidasi
Class: CLASS1 Other
Class: CLASS2 Carboxylic acid
Class: CLASS3 Lipoic acid
Formula: C8H14O2S2
Exact mass: 206.043
SMILES: C1CSSC1CCCCC(=O)O
InChI: 5-(dithiolan-3-yl)pentanoic acid
Instrument: TQD, Waters
Ion type: [M+H]+
Precursor m/z: 207.19
m/z	relative intensity
206	76
207	999
