Mass spectrum: L-Ornithine monohydrochloride; MS2; QqQ; positive; CE 30 V
Name: L-Ornithine monohydrochloride
Name: Orn
Name: (S)-2,5-Diaminopentanoate
Name: (S)-2,5-Diaminopentanoic acid monohydrochloride
Name: L-2,5-Diaminovaleric Acid Monohydrochloride
Class: CLASS1 Amino acid
Class: CLASS2 Ornithine
Formula: C5H12N2O2
Exact mass: 132.089
SMILES: C(CC(C(=O)O)N)CN
InChI: (2S)-2,5-diaminopentanoic acid
Instrument: TQD, Waters
Ion type: [M+H]+
Precursor m/z: 133.14
m/z	relative intensity
69	278
70	999
