Mass spectrum: L-Carnitine hydrochloride; MS2; QqQ; positive; CE 30 V
Name: L-Carnitine hydrochloride
Name: Vitamin BT
Name: (-)-beta-Hydroxy-gamma-(trimethylammonio)butyrate
Name: Levocarnitine
Name: L-gamma-Trimethyl-beta-hydroxybutyrobetaine
Class: CLASS1 Other
Class: CLASS2 Vitamin
Formula: C7H16NO3
Exact mass: 162.113
SMILES: C[N+](C)(C)CC(CC(=O)[O-])O
InChI: (3R)-3-hydroxy-4-trimethylazaniumylbutanoate
Instrument: TQD, Waters
Ion type: [M+H]+
Precursor m/z: 162.18
m/z	relative intensity
28	46
29	147
41	39
42	362
43	999
56	44
57	198
58	91
59	283
60	844
84	154
85	645
101	79
102	399
103	608
160	79
161	116
162	455
163	38
