Mass spectrum: Hypotaurine; MS2; QqQ; positive; CE 30 V
Name: Hypotaurine
Name: 2-Aminoethanesulfinic acid
Name: 2-Aminoethylsulfinic Acid
Class: CLASS1 Other
Class: CLASS2 Other
Class: CLASS3 Hypotaurine
Formula: C2H7NO2S
Exact mass: 109.019
SMILES: C(CS(=O)O)N
InChI: 2-aminoethanesulfinic acid
Instrument: TQD, Waters
Ion type: [M+H]+
Precursor m/z: 110.04
m/z	relative intensity
29	407
30	999
44	104
45	623
111	210
