Mass spectrum: Lipoic acid, reduced ; MS2; QqQ; positive; CE 10 V
Name: Lipoic acid, reduced 
Name: DHLA
Name: Dihydrolipoic acid
Name: 6,8-Dimercaptooctanoic acid
Name: DL-6,8-Thioctic acid, reduced
Class: CLASS1 Other
Class: CLASS2 Carboxylic acid
Class: CLASS3 Thioctic acid
Formula: C8H16O2S2
Exact mass: 208.059
SMILES: C(CCC(=O)O)CC(CCS)S
InChI: 6,8-bis-sulfanyloctanoic acid
Instrument: TQD, Waters
Ion type: [M+H]+
Precursor m/z: 209.25
m/z	relative intensity
209	999
