Mass spectrum: Glycolic acid; MS2; QqQ; negative; CE 10 V
Name: Glycolic acid
Name: Glycolate
Name: Hydroxyacetic acid
Name: Hydroxyethanoic acid
Class: CLASS1 Other
Class: CLASS2 Carboxylic acid
Class: CLASS3 Glycolic acid
Formula: C2H4O3
Exact mass: 76.016
SMILES: C(C(=O)O)O
InChI: 2-hydroxyacetic acid
Instrument: TQD, Waters
Ion type: [M-H]-
Precursor m/z: 74.96
m/z	relative intensity
75	999
