Mass spectrum: D-Arabinose-5-phosphate disodium salt; MS2; QqQ; negative; CE 10 V
Name: D-Arabinose-5-phosphate disodium salt
Name: Ara-5P
Class: CLASS1 Other
Class: CLASS2 Suger phosphate
Class: CLASS3 Arabinose phosphate
Formula: C5H11O8P
Exact mass: 230.019
SMILES: C(C(C(C(C=O)O)O)O)OP(=O)(O)O
InChI: (2,3,4-trihydroxy-5-oxopentyl) dihydrogen phosphate
Instrument: TQD, Waters
Ion type: [M-H]-
Precursor m/z: 229.15
m/z	relative intensity
96	32
228	121
229	999
