Mass spectrum: Catechol; MS2; QqQ; positive; CE 20 V
Name: Catechol
Name: 1,2-dihydroxybenzen
Name: Pyrocatechol
Name: 1,2-Benzenediol
Name: Brenzcatechin
Name: o-Benzenediol
Name: Pyrocatechinic acid
Name: Pyrocatechuic Acid
Name: o-Diphenol
Name: Oxyphenic acid
Name: o-Phenylenediol
Name: Phthalhydroquinone
Class: CLASS1 Other
Class: CLASS2 Other
Class: CLASS3 Catechol
Formula: C6H6O2
Exact mass: 110.036
SMILES: C1=CC=C(C(=C1)O)O
InChI: benzene-1,2-diol
Instrument: TQD, Waters
Ion type: [M+H]+
Precursor m/z: 110.07
m/z	relative intensity
68	39
69	999
