Mass spectrum: Daidzein; MS2; QqQ; positive; CE 40 V
Name: Daidzein
Name: Ddze
Name: 4',7-dihydroxyisoflavone
Name: Daidzeol
Name: 7-Hydroxy-3-(4-hydroxyphenyl)-4-benzopyrone
Name: 7-Hydroxy-3-(4-hydroxy?phenyl)-4H-1-benzo?pyran-4-one
Name: 7-Hydroxy-3-(4-hydroxy?phenyl)?chromone
Class: CLASS1 Flavonoid
Class: CLASS2 Isoflavone
Class: CLASS3 Daidzein
Formula: C15H10O4
Exact mass: 254.057
SMILES: C1=CC(=CC=C1C2=COC3=C(C2=O)C=CC(=C3)O)O
InChI: 7-hydroxy-3-(4-hydroxyphenyl)chromen-4-one
Instrument: TQD, Waters
Ion type: [M+H]+
Precursor m/z: 255.24
m/z	relative intensity
55	41
90	118
91	333
119	89
128	37
129	30
136	120
137	506
145	45
149	30
152	51
153	133
171	47
181	181
184	32
197	48
198	101
199	501
226	55
227	145
237	63
251	46
252	84
253	220
254	512
255	999
256	171
