Mass spectrum: Tyramine; MS2; QqQ; positive; CE 10 V
Name: Tyramine
Name: 4-Hydroxyphenethylamine
Name: Uteramine
Name: 4-Hydroxy-beta-phenylethylamine
Name: 2-(4-Hydroxyphenyl)ethylamine
Name: 4-(2-Aminoethyl)phenol
Name: Systogene
Name: Tyrosamine
Class: CLASS1 Other
Class: CLASS2 Other
Class: CLASS3 Tyramine
Formula: C8H11NO
Exact mass: 137.084
SMILES: C1=CC(=CC=C1CCN)O
InChI: 4-(2-aminoethyl)phenol
Instrument: TQD, Waters
Ion type: [M+H]+
Precursor m/z: 138.15
m/z	relative intensity
120	58
121	999
138	410
