Mass spectrum: Xanthosine-5′-monophosphate disodium salt ; MS2; QqQ; positive; CE 40 V
Name: Xanthosine-5′-monophosphate disodium salt 
Name: XMP
Name: Xanthylic acid
Name: (9-D-Ribosylxanthine)-5'-phosphate
Class: CLASS1 Other
Class: CLASS2 Nucleotide
Class: CLASS3 Xanthosine phosphate
Formula: C10H13N4O9P
Exact mass: 364.042
SMILES: C1=NC2=C(N1C3C(C(C(O3)COP(=O)(O)O)O)O)NC(=O)NC2=O
InChI: [(2R,3S,4R,5R)-5-(2,6-dioxo-3H-purin-9-yl)-3,4-dihydroxyoxolan-2-yl]methyl dihydrogen phosphate
Instrument: TQD, Waters
Ion type: [M+H]+
Precursor m/z: 365.28
m/z	relative intensity
41	34
96	266
97	999
153	64
