Mass spectrum: Spermidine; MS2; QqQ; positive; CE 20 V
Name: Spermidine
Name: N-(3-Aminopropyl)-1,4-diaminobutane
Name: 1,8-Diamino-4-azaoctane
Name: 1,5,10-Triazadecane
Name: 4-Azaoctamethylenediamine
Class: CLASS1 Alkaloid
Class: CLASS2 Polyamine
Class: CLASS3 Spermidine
Formula: C7H19N3
Exact mass: 145.157
SMILES: C(CCNCCCN)CN
InChI: N-(3-aminopropyl)butane-1,4-diamine
Instrument: TQD, Waters
Ion type: [M+H]+
Precursor m/z: 146.25
m/z	relative intensity
58	39
71	165
72	999
75	58
112	94
146	51
