Mass spectrum: o-Phospho-L-serine; MS2; QqQ; positive; CE 60 V
Name: o-Phospho-L-serine
Name: L-SOP
Name: Ser(P)
Name: 3-phosphoserine
Name: Dexfosfoserine
Name: L-2-Amino-3-hydroxypropanoic acid 3-phosphate
Name: L-Serine O-phosphate
Name: Plasmenylserine
Name: Serine phosphate
Class: CLASS1 Amino acid
Class: CLASS2 Serine
Formula: C3H8NO6P
Exact mass: 185.008
SMILES: C(C(C(=O)O)N)OP(=O)(O)O
InChI: (2S)-2-amino-3-phosphonooxypropanoic acid
Instrument: TQD, Waters
Ion type: [M+H]+
Precursor m/z: 186.14
m/z	relative intensity
42	999
