Mass spectrum: alpha-Ketoglutaric acid disodium salt; MS2; QqQ; negative; CE 10 V
Name: alpha-Ketoglutaric acid disodium salt
Name: 2-Oxoglutaric acid
Name: 2-oxoglutarate
Name: 2-Ketoglutaric Acid
Name: alpha-ketoglutarate
Name: 2-Oxopentanedioic acid
Name: 2-Oxo-1,5-pentanedioic Acid
Class: CLASS1 Other
Class: CLASS2 Carboxylic acid
Class: CLASS3 Glutaric acid
Formula: C5H6O5
Exact mass: 146.021
SMILES: C(CC(=O)O)C(=O)C(=O)O
InChI: 2-oxopentanedioic acid
Instrument: TQD, Waters
Ion type: [M-H]-
Precursor m/z: 145.08
m/z	relative intensity
99	60
100	77
101	348
144	137
145	999
