Mass spectrum: S-Carboxymethyl-L-cysteine; MS2; QqQ; positive; CE 10 V
Name: S-Carboxymethyl-L-cysteine
Name: PSCMC
Name: L-Carbocisteine
Name: L-Carboxymethylcysteine
Name: Mucodyne
Class: CLASS1 Amino acid
Class: CLASS2 Cysteine
Formula: C5H9NO4S
Exact mass: 179.025
SMILES: C(C(C(=O)O)N)SCC(=O)O
InChI: (2R)-2-amino-3-(carboxymethylsulfanyl)propanoic acid
Instrument: TQD, Waters
Ion type: [M+H]+
Precursor m/z: 180.16
m/z	relative intensity
162	35
163	95
179	174
180	999
