Mass spectrum: Sarcosine; MS2; QqQ; positive; CE 10 V
Name: Sarcosine
Name: Sar
Name: Sarcosinic acid
Name: N-Methylglycine
Name: Methylaminoacetic Acid
Name: Methylaminoethanoic acid
Name: N-Methylglycocoll
Class: CLASS1 Amino acid
Class: CLASS2 Sarcosine
Formula: C3H7NO2
Exact mass: 89.047
SMILES: CNCC(=O)O
InChI: 2-methylaminoacetic acid
Instrument: TQD, Waters
Ion type: [M+H]+
Precursor m/z: 90.06
m/z	relative intensity
43	90
44	485
89	127
90	999
