Mass spectrum: Capsaicin; MS2; QqQ; positive; CE 40 V
Name: Capsaicin
Name: 8-methyl-N-vanillyl-6-nonenamide
Name: 8-(4-hydroxy-3-methoxybenzyl)carbamoyl-8-methyl-5-octane
Class: CLASS1 Other
Class: CLASS2 Other
Class: CLASS3 Capsaicin
Formula: C18H27NO3
Exact mass: 305.199
SMILES: CC(C)C=CCCCCC(=O)NCC1=CC(=C(C=C1)O)OC
InChI: (E)-N-[(4-hydroxy-3-methoxyphenyl)methyl]-8-methylnon-6-enamide
Instrument: TQD, Waters
Ion type: [M+H]+
Precursor m/z: 306.44
m/z	relative intensity
69	36
136	196
137	999
