Mass spectrum: Kaempferol-7-O-alpha-L-rhamnoside; MS2; QqQ; positive; CE 30 V
Name: Kaempferol-7-O-alpha-L-rhamnoside
Name: Kaem-7-Rha
Class: CLASS1 Flavonoid
Class: CLASS2 Flavonol
Class: CLASS3 Kaempferol glycoside
Formula: C21H20O10
Exact mass: 432.105
SMILES: no data
InChI: no data
Instrument: TQD, Waters
Ion type: [M+H]+
Precursor m/z: 433.39
m/z	relative intensity
286	433
287	999
288	36
