Mass spectrum: Oxaloacetic acid; MS2; QqQ; positive; CE 10 V
Name: Oxaloacetic acid
Name: Oxaloacetate
Name: 2-Oxosuccinic acid
Name: keto-Oxaloacetate
Name: Ketosuccinic acid
Name: Oxalacetic acid
Name: Oxobutanedioic acid
Name: Hydroxybutenedioic acid
Class: CLASS1 Other
Class: CLASS2 Carboxylic acid
Class: CLASS3 Acetic acid
Formula: C4H4O5
Exact mass: 132.005
SMILES: C(C(=O)C(=O)O)C(=O)O
InChI: 2-oxobutanedioic acid
Instrument: TQD, Waters
Ion type: [M+H]+
Precursor m/z: 131.65
m/z	relative intensity
90	999
91	393
111	153
