Mass spectrum: rosmarinic acid; MS2; QqQ; negative; CE 30 V
Name: rosmarinic acid
Name: 7-Hydroxy-PIPAT
Name: Rosmarinate
Name: Rosemary acid
Name: (R)-O-(3,4-Dihydroxycinnamoyl)-3-(3,4- dihydroxyphenyl)lactic acid
Class: CLASS1 Phenylpropanoid
Class: CLASS2 Phenylpropanoid ester
Class: CLASS3 Rosmarinic acid
Formula: C18H16O8
Exact mass: 360.084
SMILES: C1=CC(=C(C=C1CC(C(=O)O)OC(=O)C=CC2=CC(=C(C=C2)O)O)O)O
InChI: (2S)-3-(3,4-dihydroxyphenyl)-2-[(E)-3-(3,4-dihydroxyphenyl)prop-2-enoyl]oxypropanoic acid
Instrument: TQD, Waters
Ion type: [M-H]-
Precursor m/z: 359.32
m/z	relative intensity
160	202
161	999
179	56
196	149
197	402
