Mass spectrum: Puerarin; MS2; QqQ; negative; CE 30 V
Name: Puerarin
Name: Ddze-8-C-Glc
Name: daidzein-8-C-glucoside
Name: kakonein
Name: 8-Glucosyldaidzein
Name: 4',7-dihydroxy-8-C-glucosylisoflavone
Name: 8-(beta-D-Glucopyranosyl-7-hydroxy-3- (4-hydroxyphenyl)-4H-1-benzopyran-4-one 
Class: CLASS1 Flavonoid
Class: CLASS2 Isoflavone
Class: CLASS3 Daidzein glycoside
Formula: C21H20O9
Exact mass: 416.11
SMILES: C1=CC(=CC=C1C2=COC3=C(C2=O)C=CC(=C3C4C(C(C(C(O4)CO)O)O)O)O)O
InChI: 7-hydroxy-3-(4-hydroxyphenyl)-8-[(2S,3R,4R,5S,6R)-3,4,5-trihydroxy-6-(hydroxymethyl)oxan-2-yl]chromen-4-one
Instrument: TQD, Waters
Ion type: [M-H]-
Precursor m/z: 415.39
m/z	relative intensity
267	72
294	140
295	558
413	37
414	251
415	999
416	54
