Mass spectrum: L-menthol; MS2; QqQ; positive; CE 20 V
Name: L-menthol
Name: L-Hexahydrothymol
Name: Menthyl alcohol
Name: L-p‐Menthan‐3‐ol
Name: 5-Methyl-2-(1-methylethyl)cyclohexanol
Name: (1R,2S,5R)-2-Isopropyl-5-methylcyclohexanol
Class: CLASS1 Terpenoid
Class: CLASS2 Monoterpenoid
Class: CLASS3 Menthol
Formula: C10H20O
Exact mass: 156.151
SMILES: CC1CCC(C(C1)O)C(C)C
InChI: (1R,2S,5R)-5-methyl-2-propan-2-ylcyclohexan-1-ol
Instrument: TQD, Waters
Ion type: [M+H]+
Precursor m/z: 156.25
m/z	relative intensity
69	999
