Mass spectrum: 3-cyanopyridine; MS2; QqQ; positive; CE 30 V
Name: 3-cyanopyridine
Name: 3-Pyridinecarbonitrile
Name: Nicotinic acid nitrile
Name: Nicotinonitrile
Name: Pyridine-3-carbonitrile
Name: beta-Pyridyl Cyanide
Name: 3-Azabenzonitrile
Name: 3-Pyridinecarbonitrile
Class: CLASS1 Other
Class: CLASS2 Other
Class: CLASS3 Pyridine
Formula: C6H4N2
Exact mass: 104.037
SMILES: C1=CC(=CN=C1)C#N
InChI: pyridine-3-carbonitrile
Instrument: TQD, Waters
Ion type: [M+H]+
Precursor m/z: 105.05
m/z	relative intensity
50	34
51	321
77	141
78	286
104	296
105	999
