Mass spectrum: 2-Deoxy-D-ribose; MS2; QqQ; positive; CE 10 V
Name: 2-Deoxy-D-ribose
Name: 2d-Rib
Name: 2-Deoxy-D-arabinose
Name: 2-Deoxy-D-erythropentose
Name: Thyminose
Class: CLASS1 Other
Class: CLASS2 Sugar
Class: CLASS3 Monosaccharide
Formula: C5H10O4
Exact mass: 134.057
SMILES: C1C(C(OC1O)CO)O
InChI: (2R,4S,5R)-5-(hydroxymethyl)oxolane-2,4-diol
Instrument: TQD, Waters
Ion type: [M+H]+
Precursor m/z: 135.15
m/z	relative intensity
73	517
94	999
