Mass spectrum: L-alpha-Phosphatidylinositol; MS2; QqQ; positive; CE 30 V
Name: L-alpha-Phosphatidylinositol
Name: PI
Class: CLASS1 Other
Class: CLASS2 Phospholipid
Class: CLASS3 Phosphatidylinositol
Formula: -
Exact mass: 0
SMILES: no data
InChI: no data
Instrument: TQD, Waters
Ion type: [M+H]+
Precursor m/z: 836.02
m/z	relative intensity
574	90
575	690
576	999
577	229
