Mass spectrum: 1,2-Dipalmitoyl-sn-glycero-3-phospho-rac-(1-glycerol) sodium salt; MS2; QqQ; negative; CE 20 V
Name: 1,2-Dipalmitoyl-sn-glycero-3-phospho-rac-(1-glycerol) sodium salt
Name: DPPG
Name: LHG
Name: (16:0/16:0)PG
Name: 1,2-Dipalmitoyl-sn-glycero-3-phospho-rac-glycerol
Name: 1,2-dipalmitoylphosphatidylglycerol 
Class: CLASS1 Other
Class: CLASS2 Phospholipid
Class: CLASS3 Phosphatidylglycerol
Formula: C38H75O10P
Exact mass: 722.509
SMILES: CCCCCCCCCCCCCCCC(=O)OCC(COP(=O)(O)OCC(CO)O)OC(=O)CCCCCCCCCCCCCCC
InChI: [1-[[(2S)-2,3-dihydroxypropoxy]-hydroxyphosphoryl]oxy-3-hexadecanoyloxypropan-2-yl] hexadecanoate
Instrument: TQD, Waters
Ion type: [M-H]-
Precursor m/z: 722.99
m/z	relative intensity
721	40
722	934
723	999
724	151
