Mass spectrum: Palmitoleic acid; MS2; QqQ; positive; CE 20 V
Name: Palmitoleic acid
Name: Palmitoleate
Name: Palmitolinoleic acid
Name: cis-9-Hexadecenoic acid
Class: CLASS1 Other
Class: CLASS2 Carboxylic acid
Class: CLASS3 Hexadecenoic acid
Formula: C16H30O2
Exact mass: 254.224
SMILES: CCCCCCC=CCCCCCCCC(=O)O
InChI: (Z)-hexadec-9-enoic acid
Instrument: TQD, Waters
Ion type: [M+H]+
Precursor m/z: 254.46
m/z	relative intensity
111	311
254	999
