Mass spectrum: L-alpha-Phosphatidylinositol; MS2; QqQ; positive; CE 50 V
Name: L-alpha-Phosphatidylinositol
Name: PI
Class: CLASS1 Other
Class: CLASS2 Phospholipid
Class: CLASS3 Phosphatidylinositol
Formula: -
Exact mass: 0
SMILES: no data
InChI: no data
Instrument: TQD, Waters
Ion type: [M+H]+
Precursor m/z: 836.02
m/z	relative intensity
57	130
67	91
69	77
81	67
95	110
97	41
109	62
574	149
575	789
576	999
577	55
