Mass spectrum: Homogentisic acid; MS2; QqQ; negative; CE 10 V
Name: Homogentisic acid
Name: 2,5-DHPOP
Name: Homogentisate
Name: Homogentisinic acid
Name: 2,5-Dihydroxyphenylacetate
Name: 2,5-Dihydroxyphenylacetic acid
Name: Alcapton
Name: 2,5-Dihydroxybenzeneacetic acid
Class: CLASS1 Other
Class: CLASS2 Other
Class: CLASS3 Homogentisic acid
Formula: C8H8O4
Exact mass: 168.042
SMILES: C1=CC(=C(C=C1O)CC(=O)O)O
InChI: 2-(2,5-dihydroxyphenyl)acetic acid
Instrument: TQD, Waters
Ion type: [M-H]-
Precursor m/z: 167.13
m/z	relative intensity
123	352
166	108
167	999
