Mass spectrum: Sodium Cholate Hydrate; MS2; QqQ; positive; CE 30 V
Name: Sodium Cholate Hydrate
Name: Cholalic acid
Name: Cholalic acid
Name: Chenodiol
Name: chenodeoxycholic acid
Name: Cholsaeure
Name: Colalin
Name: Cholalin
Name: ursocholic acid
Name: 3alpha,7alpha,12alpha-Trihydroxy-5beta-cholan-24-oic acid sodium salt
Class: CLASS1 Terpenoid
Class: CLASS2 Triterpenoid
Class: CLASS3 Cholic acid
Formula: C24H40O5
Exact mass: 408.287
SMILES: CC(CCC(=O)O)C1CCC2C1(C(CC3C2C(CC4C3(CCC(C4)O)C)O)O)C
InChI: (4R)-4-[(3R,5S,7R,8R,9S,10S,12S,13R,14S,17R)-3,7,12-trihydroxy-10,13-dimethyl-2,3,4,5,6,7,8,9,11,12,14,15,16,17-tetradecahydro-1H-cyclopenta[a]phenanthren-17-yl]pentanoic acid
Instrument: TQD, Waters
Ion type: [M+H]+
Precursor m/z: 409.45
m/z	relative intensity
407	48
408	392
409	999
410	314
