Mass spectrum: Tropinone; MS2; QqQ; positive; CE 50 V
Name: Tropinone
Name: 3-Tropanone
Name: Tropionone
Name: Tropan-3-one
Name: 8-Methyl-8-azabicyclo(3,2,1)octan-3-one
Class: CLASS1 Alkaloid
Class: CLASS2 Tropane
Class: CLASS3 Tropinone
Formula: C8H13NO
Exact mass: 139.099
SMILES: CN1C2CCC1CC(=O)C2
InChI: 8-methyl-8-azabicyclo[3.2.1]octan-3-one
Instrument: TQD, Waters
Ion type: [M+H]+
Precursor m/z: 140.17
m/z	relative intensity
29	44
30	140
41	161
42	220
44	40
55	41
56	271
57	999
67	80
82	117
83	40
97	84
98	367
140	83
