Mass spectrum: Phosphoenolpyruvic Acid Trisodium Salt monohydrate; MS2; QqQ; positive; CE 10 V
Name: Phosphoenolpyruvic Acid Trisodium Salt monohydrate
Name: PEP
Name: Phosphoenolpyruvate
Name: Phosphoenolpyruvic acid
Name: 2-Phosphonooxyprop-2-enoic acid
Name: 2-phosphonatoacrylate
Class: CLASS1 Other
Class: CLASS2 Carboxylic acid
Class: CLASS3 Phosphoenolpyruvic acid
Formula: C3H5O6P
Exact mass: 167.982
SMILES: C=C(C(=O)O)OP(=O)(O)O
InChI: 2-phosphonooxyprop-2-enoic acid
Instrument: TQD, Waters
Ion type: [M+H]+
Precursor m/z: 169.09
m/z	relative intensity
150	110
151	611
168	169
169	999
