Mass spectrum: UDP-xylose; MS2; QqQ; negative; CE 40 V
Name: UDP-xylose
Name: UDP-Xly
Class: CLASS1 Other
Class: CLASS2 Nucleotide
Class: CLASS3 Uridine phosphate
Formula: C14H22N2O16P2
Exact mass: 536.044
SMILES: C1C(C(C(C(O1)OP(=O)(O)OP(=O)(O)OCC2C(C(C(O2)N3C=CC(=O)NC3=O)O)O)O)O)O
InChI: [(2R,3S,4R)-5-(2,4-dioxopyrimidin-1-yl)-3,4-dihydroxyoxolan-2-yl]methyl [hydroxy-[(2R,3R,4S,5R)-3,4,5-trihydroxyoxan-2-yl]oxyphosphoryl] hydrogen phosphate
Instrument: TQD, Waters
Ion type: [M-H]-
Precursor m/z: 535.41
m/z	relative intensity
291	60
322	291
323	999
385	106
533	43
