Mass spectrum: 3-Methyl-2-oxobutyric acid sodium salt; MS2; QqQ; negative; CE 10 V
Name: 3-Methyl-2-oxobutyric acid sodium salt
Name: 3-methyl-2-oxobutyrate
Name: Ketovaline
Name: alpha-Ketoisovaleric acid
Name: 3-Methyl-2-oxobutanoic acid
Name: 3-Methyl-2-oxobutyric acid
Name: 2-ketoisovalerate
Name: 2-Oxo-3-methylbutanoate
Name: 2-Oxoisopentanoate
Name: 2-Keto-3-methylbutyric acid
Class: CLASS1 Other
Class: CLASS2 Carboxylic acid
Class: CLASS3 Butanoic acid
Formula: C5H8O3
Exact mass: 116.047
SMILES: CC(C)C(=O)C(=O)O
InChI: 3-methyl-2-oxobutanoic acid
Instrument: TQD, Waters
Ion type: [M-H]-
Precursor m/z: 115.07
m/z	relative intensity
114	37
115	999
