Mass spectrum: DL-Thioctamide; MS2; QqQ; positive; CE 10 V
Name: DL-Thioctamide
Name: DL-alpha-Lipoamide
Name: DL-6,8-Thioctic acid amide
Name: 1,2-Dithiolane-3-valeramide
Name: DL-6,8-Epidithiooctanamide
Class: CLASS1 Other
Class: CLASS2 Carboxylic acid
Class: CLASS3 Thioctic amide
Formula: C8H15NOS2
Exact mass: 205.059
SMILES: C1CSSC1CCCCC(=O)N
InChI: 5-(dithiolan-3-yl)pentanamide
Instrument: TQD, Waters
Ion type: [M+H]+
Precursor m/z: 206.21
m/z	relative intensity
188	96
189	999
205	91
206	674
