Mass spectrum: Pyrimidine; MS2; QqQ; positive; CE 20 V
Name: Pyrimidine
Name: 1,3-Diazabenzene
Name: 1,3-Diazine
Name: Metadiazine
Name: Miazine
Class: CLASS1 Other
Class: CLASS2 Other
Class: CLASS3 Pyrimidine
Formula: C4H4N2
Exact mass: 80.037
SMILES: C1=CN=CN=C1
InChI: pyrimidine
Instrument: TQD, Waters
Ion type: [M+H]+
Precursor m/z: 81.05
m/z	relative intensity
54	131
77	38
81	999
