Mass spectrum: D-Sorbitol-6-phosphate barium salt ; MS2; QqQ; negative; CE 40 V
Name: D-Sorbitol-6-phosphate barium salt 
Name: D-Glucitol 6-phosphate
Class: CLASS1 Other
Class: CLASS2 Suger phosphate
Class: CLASS3 Sorbitol phosphate
Formula: C6H15O9P
Exact mass: 262.045
SMILES: C(C(C(C(C(COP(=O)(O)O)O)O)O)O)O
InChI: [(2R,3R,4R,5S)-2,3,4,5,6-pentahydroxyhexyl] dihydrogen phosphate
Instrument: TQD, Waters
Ion type: [M-H]-
Precursor m/z: 261.21
m/z	relative intensity
78	173
79	810
96	126
97	999
259	50
