Mass spectrum: L-Glucono-1,5-lactone; MS2; QqQ; positive; CE 10 V
Name: L-Glucono-1,5-lactone
Name: L-Gluconolactone
Class: CLASS1 Other
Class: CLASS2 Sugar
Class: CLASS3 Monosaccharide
Formula: C6H10O6
Exact mass: 178.047
SMILES: C(C1C(C(C(C(=O)O1)O)O)O)O
InChI: (3S,4R,5R,6S)-3,4,5-trihydroxy-6-(hydroxymethyl)oxan-2-one
Instrument: TQD, Waters
Ion type: [M+H]+
Precursor m/z: 179.53
m/z	relative intensity
118	46
138	999
139	449
159	60
