Mass spectrum: 3-Hydroxypyridine; MS2; QqQ; positive; CE 30 V
Name: 3-Hydroxypyridine
Name: 3-Pyridinol
Name: beta-Oxypyridine
Name: Pyridin-3-ol
Name: 3-Oxopyridine
Name: 3-Pyridone
Name: 3-Pyridyl alcohol
Class: CLASS1 Other
Class: CLASS2 Other
Class: CLASS3 Pyridine
Formula: C5H5NO
Exact mass: 95.037
SMILES: C1=CC(=CN=C1)O
InChI: pyridin-3-ol
Instrument: TQD, Waters
Ion type: [M+H]+
Precursor m/z: 96.05
m/z	relative intensity
39	39
40	140
41	342
67	41
68	115
78	66
95	202
96	999
