Mass spectrum: 3,4-Dimethoxycinnamic acid; MS2; QqQ; positive; CE 10 V
Name: 3,4-Dimethoxycinnamic acid
Name: Dimethylcaffeic acid
Name: 3,4-Dimethoxyphenyl-2-propenoic acid
Name: 3-(3,4-Dimethoxyphenyl)acrylic Acid
Class: CLASS1 Phenylpropanoid
Class: CLASS2 Phenylpropanoid monomer
Class: CLASS3 Cinnamic acid
Formula: C11H12O4
Exact mass: 208.073
SMILES: COC1=C(C=C(C=C1)C=CC(=O)O)OC
InChI: (E)-3-(3,4-dimethoxyphenyl)prop-2-enoic acid
Instrument: TQD, Waters
Ion type: [M+H]+
Precursor m/z: 209.23
m/z	relative intensity
190	151
191	951
208	112
209	999
