Mass spectrum: 3,5-Dimethoxycinnamic acid ; MS2; QqQ; positive; CE 10 V
Name: 3,5-Dimethoxycinnamic acid 
Name: 3,5-Dimethoxyphenyl-2-propenoic acid
Class: CLASS1 Phenylpropanoid
Class: CLASS2 Phenylpropanoid monomer
Class: CLASS3 Cinnamic acid
Formula: C11H12O4
Exact mass: 208.073
SMILES: COC1=CC(=CC(=C1)C=CC(=O)O)OC
InChI: (E)-3-(3,5-dimethoxyphenyl)prop-2-enoic acid
Instrument: TQD, Waters
Ion type: [M+H]+
Precursor m/z: 209.23
m/z	relative intensity
190	128
191	999
208	259
209	872
