Mass spectrum: N-Acetyl-Phytosphingosine; MS2; QqQ; positive; CE 20 V
Name: N-Acetyl-Phytosphingosine
Name: N-C2:0-Phytoceramide
Class: CLASS1 Other
Class: CLASS2 Sphingosine
Formula: C20H41NO4
Exact mass: 359.303
SMILES: no data
InChI: no data
Instrument: TQD, Waters
Ion type: [M+H]+
Precursor m/z: 360.53
m/z	relative intensity
60	34
102	47
282	128
294	33
324	33
342	999
343	153
360	195
361	43
