Mass spectrum: 2',6'-Dihydroxy-4-Methoxychalcone-4'-O-Neohesperidoside; MS2; QqQ; negative; CE 60 V
Name: 2',6'-Dihydroxy-4-Methoxychalcone-4'-O-Neohesperidoside
Name: Dhmc-7-Glc-2pp-Man
Class: CLASS1 Flavonoid
Class: CLASS2 Chalcone
Class: CLASS3 Chalcone glycoside
Formula: C28H34O14
Exact mass: 594.194
SMILES: no data
InChI: no data
Instrument: TQD, Waters
Ion type: [M-H]-
Precursor m/z: 593.55
m/z	relative intensity
241	48
270	33
283	30
284	189
285	999
286	138
