Mass spectrum: Geranyl acetone; MS2; QqQ; positive; CE 10 V
Name: Geranyl acetone
Name: (5E)-Geranyl Acetone
Name: Dihydropseudoionone
Name: 6,10-dimethylundeca-5,9-dien-2-one
Name: Geranyl-2-propanone
Name: (E)-2,6-Dimethyl-2,6-undecadien-10-one
Class: CLASS1 Other
Class: CLASS2 Other
Class: CLASS3 Geranylacetone
Formula: C13H22O
Exact mass: 194.167
SMILES: CC(=CCCC(=CCCC(=O)C)C)C
InChI: (5E)-6,10-dimethylundeca-5,9-dien-2-one
Instrument: TQD, Waters
Ion type: [M+H]+
Precursor m/z: 195.3
m/z	relative intensity
85	45
99	48
137	164
176	124
177	999
195	476
