Mass spectrum: Kaempferol-3-Rhamnoside-4''-Rhamnoside-7-Rhamnoside; MS2; QqQ; positive; CE 50 V
Name: Kaempferol-3-Rhamnoside-4''-Rhamnoside-7-Rhamnoside
Name: Kaem-3-Rha-4''-Rha-7-Rha
Name: Cassinopin
Class: CLASS1 Flavonoid
Class: CLASS2 Flavonol
Class: CLASS3 Kaempferol glycoside
Formula: C33H40O18
Exact mass: 724.221
SMILES: no data
InChI: no data
Instrument: TQD, Waters
Ion type: [M+H]+
Precursor m/z: 725.71
m/z	relative intensity
70	43
71	312
83	87
84	88
85	350
111	190
129	226
146	54
147	95
238	38
239	32
286	333
287	999
288	130
433	42
