Mass spectrum: DL-homocystine; MS2; QqQ; positive; CE 10 V
Name: DL-homocystine
Name: meso-4,4'-Dithio-bis(2-aminobutanoic acid)
Name: DL-4,4'-Dithiobis(2-aminobutyric acid)
Class: CLASS1 Amino acid
Class: CLASS2 Cysteine
Formula: C4H8NSO2
Exact mass: 134.027
SMILES: C(CSSCCC(C(=O)O)N)C(C(=O)O)N
InChI: 2-amino-4-(3-amino-4-hydroxy-4-oxobutyl)disulfanylbutanoic acid
Instrument: TQD, Waters
Ion type: [M+H]+
Precursor m/z: 134.08
m/z	relative intensity
87	68
88	342
133	73
134	999
