Mass spectrum: 2-Methylglutaric Acid; MS2; QqQ; negative; CE 10 V
Name: 2-Methylglutaric Acid
Name: 2-Methylglutarate
Name: 2-Methylpentanedioic Acid
Name: alpha-Methylglutaric Acid
Class: CLASS1 Other
Class: CLASS2 Carboxylic acid
Class: CLASS3 Glutaric acid
Formula: C6H10O4
Exact mass: 146.057
SMILES: CC(CCC(=O)O)C(=O)O
InChI: 2-methylpentanedioic acid
Instrument: TQD, Waters
Ion type: [M-H]-
Precursor m/z: 145.12
m/z	relative intensity
101	107
144	143
145	999
