Mass spectrum: Kaempferol-3-Rhamnoside-4''-Rhamnoside-7-Rhamnoside; MS2; QqQ; positive; CE 20 V
Name: Kaempferol-3-Rhamnoside-4''-Rhamnoside-7-Rhamnoside
Name: Kaem-3-Rha-4''-Rha-7-Rha
Name: Cassinopin
Class: CLASS1 Flavonoid
Class: CLASS2 Flavonol
Class: CLASS3 Kaempferol glycoside
Formula: C33H40O18
Exact mass: 724.221
SMILES: no data
InChI: no data
Instrument: TQD, Waters
Ion type: [M+H]+
Precursor m/z: 725.71
m/z	relative intensity
147	91
239	108
275	115
287	54
293	39
432	230
433	999
434	264
579	118
724	75
725	115
726	95
