Mass spectrum: Kaempferol-3-Glucoside-6''-p-coumaroyl; MS2; QqQ; positive; CE 30 V
Name: Kaempferol-3-Glucoside-6''-p-coumaroyl
Name: Kaem-3-Glc-6pp-p-Cou
Name: Tiliroside
Name: Tribuloside
Name: kaempferol-3-O-(6-p-coumaroyl)-glucoside
Name: Potengriffioside A
Class: CLASS1 Flavonoid
Class: CLASS2 Flavonol
Class: CLASS3 Kaempferol glycoside
Formula: C30H26O13
Exact mass: 594.137
SMILES: C1=CC(=CC=C1C=CC(=O)OCC2C(C(C(C(O2)OC3=C(OC4=CC(=CC(=C4C3=O)O)O)C5=CC=C(C=C5)O)O)O)O)O
InChI: [(2R,3S,4S,5R,6S)-6-[5,7-dihydroxy-2-(4-hydroxyphenyl)-4-oxochromen-3-yl]oxy-3,4,5-trihydroxyoxan-2-yl]methyl (E)-3-(4-hydroxyphenyl)prop-2-enoate
Instrument: TQD, Waters
Ion type: [M+H]+
Precursor m/z: 595.52
m/z	relative intensity
146	215
147	999
148	33
165	40
286	51
287	97
291	40
309	107
