Mass spectrum: Sodium Pyruvate; MS2; QqQ; positive; CE 10 V
Name: Sodium Pyruvate
Name: alpha-Ketopropionic acid sodium salt
Name: Pyruvic acid sodium salt
Name: 2-Oxopropanoic acid sodium salt
Name: Acetylformic acid
Class: CLASS1 Other
Class: CLASS2 Carboxylic acid
Class: CLASS3 Formic acid
Formula: C3H4O3
Exact mass: 88.016
SMILES: CC(=O)C(=O)O
InChI: 2-oxopropanoic acid
Instrument: TQD, Waters
Ion type: [M+H]+
Precursor m/z: 89.51
m/z	relative intensity
47	34
59	87
60	757
87	234
88	999
