Mass spectrum: 2-Hydroxyisocaproic acid; MS2; QqQ; negative; CE 20 V
Name: 2-Hydroxyisocaproic acid
Name: 2-Hydroxyisocaproate
Name: 2-Hydroxy-4-methylvaleric acid
Name: leucic acid
Name: alpha-hydroxyisocaproic acid 
Class: CLASS1 Other
Class: CLASS2 Carboxylic acid
Class: CLASS3 Leucic acid
Formula: C6H12O3
Exact mass: 132.078
SMILES: CC(C)CC(C(=O)O)O
InChI: (2R)-2-hydroxy-4-methylpentanoic acid
Instrument: TQD, Waters
Ion type: [M-H]-
Precursor m/z: 131.11
m/z	relative intensity
45	71
84	39
85	999
130	108
131	526
