Mass spectrum: 3-Methyl-L-histidine; MS2; QqQ; positive; CE 50 V
Name: 3-Methyl-L-histidine
Name: 3-Me-His
Name: 3-(1-Methylimidazol-5-yl)-L-alanine
Name: N-pros-Methyl-L-histidine
Class: CLASS1 Amino acid
Class: CLASS2 Histidine
Formula: C7H11N3O2
Exact mass: 169.085
SMILES: CN1C=NC=C1CC(C(=O)O)N
InChI: (2S)-2-amino-3-(3-methylimidazol-4-yl)propanoic acid
Instrument: TQD, Waters
Ion type: [M+H]+
Precursor m/z: 170.2
m/z	relative intensity
41	120
42	165
54	40
55	71
67	102
68	428
80	45
81	87
82	38
93	52
94	429
95	999
96	623
97	100
