Mass spectrum: Isovaleric Acid; MS2; QqQ; positive; CE 10 V
Name: Isovaleric Acid
Name: Isovalerate
Name: Isovaieric acid
Name: 3-Methylbutanoic acid
Name: 3-Methylbutyric acid
Name: iso-Pentanoic acid
Name: Delphinic acid
Name: Isopropylacetic acid
Name: Isovalerianic acid
Name: 3-Methylbutyrate
Name: beta-Methylbutyric acid
Class: CLASS1 Other
Class: CLASS2 Carboxylic acid
Class: CLASS3 Isovaleric acid
Formula: C5H10O2
Exact mass: 102.068
SMILES: CC(C)CC(=O)O
InChI: 3-methylbutanoic acid
Instrument: TQD, Waters
Ion type: [M+H]+
Precursor m/z: 102.09
m/z	relative intensity
59	41
60	999
61	43
102	84
