Mass spectrum: Kaempferol-3-Glucoside-2''-Rhamnoside-7-Rhamnoside; MS2; QqQ; positive; CE 10 V
Name: Kaempferol-3-Glucoside-2''-Rhamnoside-7-Rhamnoside
Name: Kaem-3-Glc-2''-Rha-7-Rha
Class: CLASS1 Flavonoid
Class: CLASS2 Flavonol
Class: CLASS3 Kaempferol glycoside
Formula: C33H40O19
Exact mass: 740.216
SMILES: no data
InChI: no data
Instrument: TQD, Waters
Ion type: [M+H]+
Precursor m/z: 741.71
m/z	relative intensity
433	156
595	38
596	46
740	123
741	825
742	999
743	235
