Mass spectrum: Isorhamnetin-3-Galactoside-6''-Rhamnoside; MS2; QqQ; positive; CE 30 V
Name: Isorhamnetin-3-Galactoside-6''-Rhamnoside
Name: Isor-3-Gal-6''-Rha
Class: CLASS1 Flavonoid
Class: CLASS2 Flavonol
Class: CLASS3 Isorhamnetin glycoside
Formula: C28H32O16
Exact mass: 624.169
SMILES: no data
InChI: no data
Instrument: TQD, Waters
Ion type: [M+H]+
Precursor m/z: 625.57
m/z	relative intensity
71	36
85	64
129	79
147	219
316	764
317	999
318	238
479	56
