Mass spectrum: beta-cyano-L-alanine; MS2; QqQ; positive; CE 10 V
Name: beta-cyano-L-alanine
Name: Ala(3-CN)
Name: Ala(beta-CN)
Name: 3-Cyano-L-alanine
Name: L-3-Cyanoalanine
Name: L-beta-Cyanoalanine
Class: CLASS1 Amino acid
Class: CLASS2 Alanine
Formula: C4H6N2O2
Exact mass: 114.042
SMILES: C(C#N)C(C(=O)O)N
InChI: (2S)-2-amino-3-cyanopropanoic acid
Instrument: TQD, Waters
Ion type: [M+H]+
Precursor m/z: 113.95
m/z	relative intensity
114	999
