Mass spectrum: O-Phosphorylethanolamine; MS2; QqQ; positive; CE 30 V
Name: O-Phosphorylethanolamine
Name: Ethanolamine phospha
Name: 2-Aminoethyl Dihydrogenphosphate
Name: O-Phosphoethanolamine
Name: Colaminephosphoric acid
Name: Colamine phosphate
Class: CLASS1 Other
Class: CLASS2 Phosphate
Class: CLASS3 Ethanolamine phosphate
Formula: C2H8NO4P
Exact mass: 141.019
SMILES: C(COP(=O)(O)O)N
InChI: 2-aminoethyl dihydrogen phosphate
Instrument: TQD, Waters
Ion type: [M+H]+
Precursor m/z: 142.11
m/z	relative intensity
43	210
44	999
