Mass spectrum: 2-Hydroxyphenylacetic acid; MS2; QqQ; positive; CE 10 V
Name: 2-Hydroxyphenylacetic acid
Name: 2-Hydroxyphenylacetate
Name: 2-Hydroxy-2-phenylacetic Acid
Class: CLASS1 Other
Class: CLASS2 Carboxylic acid
Class: CLASS3 Acetic acid
Formula: C8H8O3
Exact mass: 152.047
SMILES: C1=CC=C(C(=C1)CC(=O)O)O
InChI: 2-(2-hydroxyphenyl)acetic acid
Instrument: TQD, Waters
Ion type: [M+H]+
Precursor m/z: 152.13
m/z	relative intensity
110	453
111	999
