Mass spectrum: DL-4-Hydroxy-3-methoxymandelic acid ; MS2; QqQ; negative; CE 30 V
Name: DL-4-Hydroxy-3-methoxymandelic acid 
Name: VMA
Name: 4-Hydroxy-3-methoxymandelate
Name: Vanillylmandelic acid
Name: Vanillomandelic acid
Name: Vanilmandelic acid
Name: Vanilinmandelic Acid
Name: alpha,4-Dihydroxy-3-methoxybenzeneacetic acid
Class: CLASS1 Other
Class: CLASS2 Carboxylic acid
Class: CLASS3 Mandelic acid
Formula: C9H10O5
Exact mass: 198.052
SMILES: COC1=C(C=CC(=C1)C(C(=O)O)O)O
InChI: 2-hydroxy-2-(4-hydroxy-3-methoxyphenyl)acetic acid
Instrument: TQD, Waters
Ion type: [M-H]-
Precursor m/z: 197.17
m/z	relative intensity
137	999
138	158
