Mass spectrum: Kaempferol-3-Glucoside-2''-p-coumaroyl; MS2; QqQ; positive; CE 50 V
Name: Kaempferol-3-Glucoside-2''-p-coumaroyl
Name: Kaem-3-Glc-2pp-p-Cou
Class: CLASS1 Flavonoid
Class: CLASS2 Flavonol
Class: CLASS3 Kaempferol glycoside
Formula: C30H26O13
Exact mass: 594.137
SMILES: no data
InChI: no data
Instrument: TQD, Waters
Ion type: [M+H]+
Precursor m/z: 595.53
m/z	relative intensity
146	251
147	999
148	47
287	82
291	99
