Mass spectrum: Quercetin-3-Glucuronide; MS2; QqQ; positive; CE 10 V
Name: Quercetin-3-Glucuronide
Name: Quer-3-GlcA
Name: Miquelianin
Name: Querciturone
Class: CLASS1 Flavonoid
Class: CLASS2 Flavonol
Class: CLASS3 Quercetin glycoside
Formula: C21H18O13
Exact mass: 478.074
SMILES: C1=CC(=C(C=C1C2=C(C(=O)C3=C(C=C(C=C3O2)O)O)OC4C(C(C(C(O4)C(=O)O)O)O)O)O)O
InChI: (2S,3S,4S,5R,6S)-6-[2-(3,4-dihydroxyphenyl)-5,7-dihydroxy-4-oxochromen-3-yl]oxy-3,4,5-trihydroxyoxane-2-carboxylic acid
Instrument: TQD, Waters
Ion type: [M+H]+
Precursor m/z: 479.4
m/z	relative intensity
303	104
478	262
479	999
480	326
