Mass spectrum: Kaempferol-3-Rhamnoside-7-Rhamnoside; MS2; QqQ; positive; CE 50 V
Name: Kaempferol-3-Rhamnoside-7-Rhamnoside
Name: Kaem-3-Rha-7-Rha
Name: Kaempferitrin
Class: CLASS1 Flavonoid
Class: CLASS2 Flavonol
Class: CLASS3 Kaempferol glycoside
Formula: C27H30O14
Exact mass: 578.163
SMILES: CC1C(C(C(C(O1)OC2=CC(=C3C(=C2)OC(=C(C3=O)OC4C(C(C(C(O4)C)O)O)O)C5=CC=C(C=C5)O)O)O)O)O
InChI: 5-hydroxy-2-(4-hydroxyphenyl)-3,7-bis[[(2S,3R,4S,5R,6S)-3,4,5-trihydroxy-6-methyloxan-2-yl]oxy]chromen-4-one
Instrument: TQD, Waters
Ion type: [M+H]+
Precursor m/z: 579.52
m/z	relative intensity
70	111
71	546
84	145
85	566
129	35
286	336
287	999
288	245
