Mass spectrum: 4-Pyridoxate; MS2; QqQ; positive; CE 10 V
Name: 4-Pyridoxate
Name: 4-PA
Name: 4-Pyridoxic acid
Name: 4-Pyridoxylic acid
Name: 4-Pyridoxinic acid
Name: 4-Pyridoxinsaeure
Name: 3-Hydroxy-5-(hydroxymethyl)-2-methyl-4-pyridinecarboxylic acid
Name: 2-Methyl-3-hydroxy-4-carboxy-5-hydroxymethylpyridine
Name: 3-Hydroxy-5-(hydroxymethyl)-2-methylisonicotinic acid 
Class: CLASS1 Other
Class: CLASS2 Vitamin
Formula: C8H9NO4
Exact mass: 183.053
SMILES: CC1=NC=C(C(=C1O)C(=O)O)CO
InChI: 3-hydroxy-5-(hydroxymethyl)-2-methylpyridine-4-carboxylic acid
Instrument: TQD, Waters
Ion type: [M+H]+
Precursor m/z: 184.19
m/z	relative intensity
166	50
183	112
184	999
