Mass spectrum: 1,3-Dimethylurate; MS2; QqQ; positive; CE 20 V
Name: 1,3-Dimethylurate
Name: 1,3-Dimethyluric acid
Name: 1,3-Dimethyl-2,6,8-trihydroxypurine
Name: Oxytheophylline
Class: CLASS1 Alkaloid
Class: CLASS2 Xanthine
Class: CLASS3 Luric acid
Formula: C7H8N4O3
Exact mass: 196.059
SMILES: CN1C2=C(C(=O)N(C1=O)C)NC(=O)N2
InChI: 1,3-dimethyl-7,9-dihydropurine-2,6,8-trione
Instrument: TQD, Waters
Ion type: [M+H]+
Precursor m/z: 197.22
m/z	relative intensity
169	107
196	290
197	999
