Mass spectrum: Glycocyamine; MS2; QqQ; positive; CE 10 V
Name: Glycocyamine
Name: Guanidineacetic acid
Name: Guanidoacetate
Name: Guanidinoacetate
Name: N-Amidinoglycine
Name: N-Amidinoglycine
Name: N-Guanylglycine
Name: Betacyamine
Name: Betasyamine
Name: Glykocyamin
Class: CLASS1 Other
Class: CLASS2 Carboxylic acid
Class: CLASS3 Glycocyamine
Formula: C3H7N3O2
Exact mass: 117.053
SMILES: C(C(=O)O)N=C(N)N
InChI: 2-(diaminomethylideneamino)acetic acid
Instrument: TQD, Waters
Ion type: [M+H]+
Precursor m/z: 118.08
m/z	relative intensity
76	39
101	46
117	129
118	999
