Mass spectrum: D-tartaric acid; MS2; QqQ; negative; CE 10 V
Name: D-tartaric acid
Name: D-Tartrate
Name: D-Threaric acid
Name: (2S,3S)-(?)-Tartaric acid
Name: 2,3-Dihydroxybutanedioic Acid
Name: D(-)-2,3-Dihydroxysuccinic Acid
Class: CLASS1 Other
Class: CLASS2 Carboxylic acid
Class: CLASS3 Tartalic acid
Formula: C4H6O6
Exact mass: 150.016
SMILES: C(C(C(=O)O)O)(C(=O)O)O
InChI: (2S,3S)-2,3-dihydroxybutanedioic acid
Instrument: TQD, Waters
Ion type: [M-H]-
Precursor m/z: 149.09
m/z	relative intensity
148	71
149	999
