Mass spectrum: 1,7-Dimethylxanthine; MS2; QqQ; positive; CE 30 V
Name: 1,7-Dimethylxanthine
Name: Paraxanthine
Name: 2,6-Dihydroxy-1,7-dimethylpurine
Name: 1,7-Dimethyl-1H-purine-2,6-dione
Class: CLASS1 Other
Class: CLASS2 Other
Class: CLASS3 Xanthine
Formula: C7H8N4O2
Exact mass: 180.064
SMILES: CN1C=NC2=C1C(=O)N(C(=O)N2)C
InChI: 1,7-dimethyl-3H-purine-2,6-dione
Instrument: TQD, Waters
Ion type: [M+H]+
Precursor m/z: 181.2
m/z	relative intensity
41	30
42	68
55	60
69	45
96	72
122	33
123	215
124	999
179	84
180	190
181	369
182	55
