Mass spectrum: 3-Methylxanthine; MS2; QqQ; positive; CE 10 V
Name: 3-Methylxanthine
Name: 3-MX
Name: 2,6-Dihydroxy-3-methylpurine
Name: 3,7-dihydro-3-methyl-1H-purine-2,6-dione
Class: CLASS1 Alkaloid
Class: CLASS2 Xanthine
Class: CLASS3 Xanthine
Formula: C6H6N4O2
Exact mass: 166.049
SMILES: CN1C2=C(C(=O)NC1=O)NC=N2
InChI: 3-methyl-7H-purine-2,6-dione
Instrument: TQD, Waters
Ion type: [M+H]+
Precursor m/z: 167.17
m/z	relative intensity
166	101
167	999
