Mass spectrum: 3-Hydroxymandelic acid ; MS2; QqQ; negative; CE 30 V
Name: 3-Hydroxymandelic acid 
Name: 3-Hydroxymandelate
Name: m-Hydroxymandelic Acid
Name: 3-Hydroxyphenylglycolic acid
Class: CLASS1 Other
Class: CLASS2 Carboxylic acid
Class: CLASS3 Mandelic acid
Formula: C8H8O4
Exact mass: 168.042
SMILES: C1=CC(=CC(=C1)O)C(C(=O)O)O
InChI: 2-hydroxy-2-(3-hydroxyphenyl)acetic acid
Instrument: TQD, Waters
Ion type: [M-H]-
Precursor m/z: 167.11
m/z	relative intensity
120	271
121	999
