Mass spectrum: 1-Isothiocyanato-8-(methylsulfinyl)-octane; MS2; QqQ; positive; CE 30 V
Name: 1-Isothiocyanato-8-(methylsulfinyl)-octane
Name: 8-Methylsulfinyloctyl isothiocyanate
Class: CLASS1 Other
Class: CLASS2 Isothiocyanate
Formula: C10H19NOS2
Exact mass: 233.09
SMILES: no data
InChI: no data
Instrument: TQD, Waters
Ion type: [M+H]+
Precursor m/z: 234.27
m/z	relative intensity
41	53
54	72
55	374
57	62
65	55
67	56
68	207
69	999
100	36
108	64
114	80
136	32
137	111
170	74
234	44
