Mass spectrum: Glycyl-L-proline; MS2; QqQ; positive; CE 60 V
Name: Glycyl-L-proline
Name: Gly-Pro
Name: GP-OH
Name: Glycylproline
Class: CLASS1 Amino acid
Class: CLASS2 Proline
Formula: C7H12N2O3
Exact mass: 172.084
SMILES: C1CC(N(C1)C(=O)CN)C(=O)O
InChI: (2S)-1-(2-aminoacetyl)pyrrolidine-2-carboxylic acid
Instrument: TQD, Waters
Ion type: [M+H]+
Precursor m/z: 173.2
m/z	relative intensity
28	63
30	59
67	55
69	56
70	999
171	86
