Mass spectrum: Maleic acid; MS2; QqQ; positive; CE 20 V
Name: Maleic acid
Name: Maleinic acid
Name: Malenic acid
Name: Toxilic acid
Name: cis-butenedioic acid
Name: maleate
Name: Maleinic acid
Name: Malenic acid
Name: 2-Butenedioic acid
Name: (Z)-1,2-Ethenedicarboxylic Acid
Class: CLASS1 Other
Class: CLASS2 Carboxylic acid
Class: CLASS3 Maleic acid
Formula: C4H4O4
Exact mass: 116.01
SMILES: C(=CC(=O)O)C(=O)O
InChI: but-2-enedioic acid
Instrument: TQD, Waters
Ion type: [M+H]+
Precursor m/z: 117.07
m/z	relative intensity
27	166
53	430
98	684
99	999
