Mass spectrum: (2R)-2-Hydroxy-2-phenethylglucosinolate; MS2; QqQ; negative; CE 30 V
Name: (2R)-2-Hydroxy-2-phenethylglucosinolate
Name: Glucosibarin
Class: CLASS1 Glucosinolate
Class: CLASS2 Aliphatic glucosinolate
Formula: C15H21NO10S2
Exact mass: 439.06
SMILES: no data
InChI: no data
Instrument: TQD, Waters
Ion type: [M-H]-
Precursor m/z: 438.37
m/z	relative intensity
74	32
75	124
96	290
97	820
136	46
195	132
437	652
438	999
439	173
