Mass spectrum: 1-Isothiocyanato-6-(methylsulfonyl)-hexane; MS2; QqQ; positive; CE 30 V
Name: 1-Isothiocyanato-6-(methylsulfonyl)-hexane
Name: 6-Methylsulfonylhexyl isothiocyanate
Class: CLASS1 Other
Class: CLASS2 Isothiocyanate
Formula: C8H15NO2S2
Exact mass: 221.054
SMILES: no data
InChI: no data
Instrument: TQD, Waters
Ion type: [M+H]+
Precursor m/z: 222.2
m/z	relative intensity
54	70
55	676
80	61
81	300
82	106
83	999
