Mass spectrum: L-Rhamnose monohydrate; MS2; QqQ; positive; CE 10 V
Name: L-Rhamnose monohydrate
Name: Rha
Name: dMan
Name: 6-Deoxy-L-mannose
Name: L(+)Rhamnopyranose
Name: Isodulcitol
Name: Mannomethylose
Name: Locaose 
Class: CLASS1 Other
Class: CLASS2 Sugar
Class: CLASS3 Monosaccharide
Formula: C6H12O5
Exact mass: 164.068
SMILES: CC1C(C(C(C(O1)O)O)O)O
InChI: (3R,4R,5R,6S)-6-methyloxane-2,3,4,5-tetrol
Instrument: TQD, Waters
Ion type: [M+H]+
Precursor m/z: 164.11
m/z	relative intensity
122	378
123	999
