Mass spectrum: p-Coumaric acid; MS2; QqQ; positive; CE 20 V
Name: p-Coumaric acid
Name: trans-4-Hydroxycinnamic acid
Class: CLASS1 Phenylpropanoid
Class: CLASS2 Phenylpropanoid monomer
Class: CLASS3 p-Coumaric acid
Formula: C9H8O3
Exact mass: 164.047
SMILES: C1=CC(=CC=C1C=CC(=O)O)O
InChI: (E)-3-(4-hydroxyphenyl)prop-2-enoic acid
Instrument: TQD, Waters
Ion type: [M+H]+
Precursor m/z: 165.16
m/z	relative intensity
119	144
146	131
147	999
165	38
