Mass spectrum: Kaempferol-3-O-beta-glucopyranosyl-7-O-alpha-rhamnopyranoside; MS2; QqQ; negative; CE 60 V
Name: Kaempferol-3-O-beta-glucopyranosyl-7-O-alpha-rhamnopyranoside
Name: Kaem-3-Glc-7-Rha
Name: Kaempferol-3-glucoside-7-rhamnoside
Class: CLASS1 Flavonoid
Class: CLASS2 Flavonol
Class: CLASS3 Kaempferol glycoside
Formula: C27H30O15
Exact mass: 594.158
SMILES: no data
InChI: no data
Instrument: TQD, Waters
Ion type: [M-H]-
Precursor m/z: 593.54
m/z	relative intensity
282	362
283	999
284	367
285	695
286	57
299	45
300	57
429	190
430	367
431	101
