Mass spectrum: D(-)-Threose; MS2; QqQ; positive; CE 10 V
Name: D(-)-Threose
Name: D-Threo-tetrose
Name: D-threo-Aldose
Class: CLASS1 Other
Class: CLASS2 Sugar
Class: CLASS3 Monosaccharide
Formula: C4H8O4
Exact mass: 120.042
SMILES: C1C(C(C(O1)O)O)O
InChI: (3S,4R)-oxolane-2,3,4-triol
Instrument: TQD, Waters
Ion type: [M+H]+
Precursor m/z: 121.12
m/z	relative intensity
92	41
93	187
120	198
121	999
