Mass spectrum: L-Ethionine; MS2; QqQ; positive; CE 10 V
Name: L-Ethionine
Name: Eth
Name: Et-homoCys
Name: S-ethyl-L-homocysteine
Name: L-2-Amino-4-(ethylthio)butyric acid
Class: CLASS1 Other
Class: CLASS2 Carboxylic acid
Class: CLASS3 Ethionine
Formula: C6H13NO2S
Exact mass: 163.066
SMILES: CCSCCC(C(=O)O)N
InChI: (2S)-2-amino-4-ethylsulfanylbutanoic acid
Instrument: TQD, Waters
Ion type: [M+H]+
Precursor m/z: 164.17
m/z	relative intensity
118	145
147	227
164	999
