Mass spectrum: Daphnetin; MS2; QqQ; negative; CE 20 V
Name: Daphnetin
Name: 7,8-Dihydroxycoumarin
Name: Daphnetol
Class: CLASS1 Phenylpropanoid
Class: CLASS2 Coumarin
Class: CLASS3 Daphnetol
Formula: C9H6O4
Exact mass: 178.026
SMILES: C1=CC(=C(C2=C1C=CC(=O)O2)O)O
InChI: 7,8-dihydroxychromen-2-one
Instrument: TQD, Waters
Ion type: [M-H]-
Precursor m/z: 177.11
m/z	relative intensity
175	32
176	217
177	999
