Mass spectrum: Safranine; MS2; QqQ; positive; CE 10 V
Name: Safranine
Name: 2,8-Dimethylphenosafranine
Name: Gossypimine
Name: Tolusafranine
Class: CLASS1 Amino acid
Class: CLASS2 Ethionine
Formula: C20H19N4
Exact mass: 315.16
SMILES: CC1=CC2=C(C=C1N)[N+](=C3C=C(C(=CC3=N2)C)N)C4=CC=CC=C4
InChI: 3,7-dimethyl-10-phenylphenazin-10-ium-2,8-diamine
Instrument: TQD, Waters
Ion type: [M+H]+
Precursor m/z: 315.39
m/z	relative intensity
314	35
315	999
