Mass spectrum: Homoglutathione; MS2; QqQ; positive; CE 10 V
Name: Homoglutathione
Name: Glu(Cys-Ala)
Name: gamma-L-Glutamyl-L-cysteinyl-beta-alanine
Name: beta-Alanine,L-gamma-glutamyl-L-cysteinyl-
Class: CLASS1 Amino acid
Class: CLASS2 Peptide
Class: CLASS3 Oligopeptide
Formula: C11H19N3O6S
Exact mass: 321.099
SMILES: C(CC(=O)NC(CS)C(=O)NCCC(=O)O)C(C(=O)O)N
InChI: (2S)-2-amino-5-[[(2R)-1-(2-carboxyethylamino)-1-oxo-3-sulfanylpropan-2-yl]amino]-5-oxopentanoic acid
Instrument: TQD, Waters
Ion type: [M+H]+
Precursor m/z: 494.44
m/z	relative intensity
494	999
