Mass spectrum: delta-Tocotrienol; MS2; QqQ; positive; CE 10 V
Name: delta-Tocotrienol
Name: 8-Methyltocotrienol
Name: (R)-delta-Tocotrienol
Class: CLASS1 Other
Class: CLASS2 Vitamin
Formula: C27H40O2
Exact mass: 396.302
SMILES: CC1=C2C(=CC(=C1)O)CCC(O2)(C)CCC=C(C)CCC=C(C)CCC=C(C)C
InChI: (2R)-2,8-dimethyl-2-[(3E,7E)-4,8,12-trimethyltrideca-3,7,11-trienyl]chroman-6-ol
Instrument: TQD, Waters
Ion type: [M+H]+
Precursor m/z: 397.58
m/z	relative intensity
177	63
191	34
397	999
398	433
399	43
