Mass spectrum: PIPES; MS2; Q-Tof; [M+H]+
Name: PIPES
Name: PIPES
Name: 1,4-Piperazinediethanesulfonic acid
Name: Piperazine-1,4-bis(2-ethanesulfonic acid)
Name: Piperazine-N,Nâ€²-bis(2-ethanesulfonic acid)
Name: 2-[4-(2-sulfoethyl)piperazin-1-yl]ethanesulfonic acid
Class: CLASS1 Other
Class: CLASS2 Other
Class: CLASS3 Other
Formula: C8H18N2O6S2
Exact mass: 302.37
SMILES: C1CN(CCN1CCS(=O)(=O)O)CCS(=O)(=O)O
InChI: InChI=1/C8H18N2O6S2/c11-17(12,13)7-5-9-1-2-10(4-3-9)6-8-18(14,15)16/h1-8H2,(H,11,12,13)(H,14,15,16)/f/h11,14H
Instrument: Q-Tof Premier, Waters
Ion type: [M+H]+
Precursor m/z: 303.06842
m/z	relative intensity
70.0658	999
84.0808	359
97.0772	376
98.0848	647
112.1011	232
113.1082	293
127.1239	373
152.0387	965
192.058	297
