Mass spectrum: Hexylamine; MS2; Q-Tof; [M+H]+
Name: Hexylamine
Name: 1-Aminohexane
Name: 1-Hexanamine
Name: hexan-1-amine
Class: CLASS1 Other
Class: CLASS2 Other
Class: CLASS3 Hexylamine
Formula: C6H15N
Exact mass: 101.19
SMILES: CCCCCCN
InChI: InChI=1/C6H15N/c1-2-3-4-5-6-7/h2-7H2,1H3
Instrument: Q-Tof Premier, Waters
Ion type: [M+H]+
Precursor m/z: 102.12824
m/z	relative intensity
57.0717	67
85.1023	337
102.1282	999
