Mass spectrum: N,N-Dimethylglycine hydrochloride; MS2; Q-Tof; [M+H]+
Name: N,N-Dimethylglycine hydrochloride
Name: Dmg
Name: N,N-Dimethylaminoacetic acid hydrochloride
Name: 2-dimethylaminoacetic acid hydrochloride
Name: N-Methylsarcosine hydrochloride
Name: 2-dimethylaminoacetic acid
Class: CLASS1 Amino acid
Class: CLASS2 Glycine
Formula: C4H9NO2
Exact mass: 103.12
SMILES: CN(C)CC(=O)O
InChI: InChI=1/C4H9NO2/c1-5(2)3-4(6)7/h3H2,1-2H3,(H,6,7)/f/h6H
Instrument: Q-Tof Premier, Waters
Ion type: [M+H]+
Precursor m/z: 104.07113
m/z	relative intensity
58.0652	999
104.0711	254
