Mass spectrum: D-Alloisoleucine; MS2; Q-Tof; [M+H]+
Name: D-Alloisoleucine
Name: allo-Ile
Name: (2R,3S)-2-Amino-3-methylpentanoic acid
Name: (2R,3S)-2-Amino-3-methylvaleric acid
Name: (2R,3S)-2-amino-3-methylpentanoic acid
Class: CLASS1 Amino acid
Class: CLASS2 Isoleucine
Formula: C6H13NO2
Exact mass: 131.17
SMILES: CCC(C)C(C(=O)O)N
InChI: InChI=1/C6H13NO2/c1-3-4(2)5(7)6(8)9/h4-5H,3,7H2,1-2H3,(H,8,9)/t4-,5+/m0/s1/f/h8H
Instrument: Q-Tof Premier, Waters
Ion type: [M+H]+
Precursor m/z: 132.10242
m/z	relative intensity
69.0709	176
86.0954	999
132.1024	94
