Mass spectrum: 4-Aminobenzoic acid; MS2; Q-Tof; [M+H]+
Name: 4-Aminobenzoic acid
Name: PABA
Name: ABEE
Name: Vitamin Bx
Name: Vitamin H1
Name: gamma-Aminobenzoic acid
Name: 1-Amino-4-carboxybenzene
Name: 4-Aminobenzoate
Name: Paraminol
Name: 4-Carboxyaniline
Name: Amben
Name: 4-aminobenzoic acid
Class: CLASS1 Other
Class: CLASS2 Benzoic acid
Class: CLASS3 Amben
Formula: C7H7NO2
Exact mass: 137.14
SMILES: C1=CC(=CC=C1C(=O)O)N
InChI: InChI=1/C7H7NO2/c8-6-3-1-5(2-4-6)7(9)10/h1-4H,8H2,(H,9,10)/f/h9H
Instrument: Q-Tof Premier, Waters
Ion type: [M+H]+
Precursor m/z: 138.05548
m/z	relative intensity
77.0404	405
94.067	407
138.0555	999
