Mass spectrum: 1-Isothiocyanato-9-(methylsulfinyl)-nonane; MS2; Q-Tof; [M+H]+
Name: 1-Isothiocyanato-9-(methylsulfinyl)-nonane
Name: 9-Methylsulfinylnonnyl isothiocyanate
Class: CLASS1 Other
Class: CLASS2 Isothiocyanate
Formula: C11H21NOS2
Exact mass: 247.42
SMILES: c
InChI: 1/C4H9NO2/c5-3-1-2-4(6)7/h1-3,5H2,(H,6,7)/f/h6H
Instrument: Q-Tof Premier, Waters
Ion type: [M+H]+
Precursor m/z: 248.11425
m/z	relative intensity
55.0589	146
65.0103	111
69.0735	787
81.073	113
83.0888	484
100.0261	100
102.0412	113
108.0846	195
114.0415	331
122.1008	190
128.0574	223
150.1325	117
151.14	169
168.1434	106
175.1212	128
184.1192	859
248.1142	999
