Mass spectrum: cyanidin-3-O-rhamnoside chloride; MS2; Q-Tof; [M]+
Name: cyanidin-3-O-rhamnoside chloride
Name: Cynd-3-Rha
Name: Cyanidin 3-rhamnoside
Class: CLASS1 Flavonoid
Class: CLASS2 Anthocyanin
Class: CLASS3 Cyanidin glycoside
Formula: C21H21O10
Exact mass: 433.39
SMILES: c
InChI: 1/C4H9NO2/c5-3-1-2-4(6)7/h1-3,5H2,(H,6,7)/f/h6H
Instrument: Q-Tof Premier, Waters
Ion type: [M]+
Precursor m/z: 433.11344
m/z	relative intensity
137.0254	49
213.0569	45
287.056	999
433.1134	70
