Mass spectrum: 3-Methylxanthine; MS2; Q-Tof; [M+H]+
Name: 3-Methylxanthine
Name: 3-MX
Name: 2,6-Dihydroxy-3-methylpurine
Name: 3,7-dihydro-3-methyl-1H-purine-2,6-dione
Name: 3-methyl-7H-purine-2,6-dione
Class: CLASS1 Alkaloid
Class: CLASS2 Xanthine
Class: CLASS3 Xanthine
Formula: C6H6N4O2
Exact mass: 166.14
SMILES: CN1C2=C(C(=O)NC1=O)NC=N2
InChI: InChI=1/C6H6N4O2/c1-10-4-3(7-2-8-4)5(11)9-6(10)12/h2H,1H3,(H,7,8)(H,9,11,12)/f/h7,9H
Instrument: Q-Tof Premier, Waters
Ion type: [M+H]+
Precursor m/z: 167.05687
m/z	relative intensity
69.0459	67
94.0422	48
96.0565	151
123.0682	67
124.0517	492
133.0145	32
149.0473	242
167.0569	999
