Mass spectrum: trans-Zeatin; MS2; Q-Tof; [M-H]-
Name: trans-Zeatin
Name: ZEE
Name: 6-(4-Hydroxy-3-methylbut-2-enylamino)purine
Name: N6-(4-Hydroxy-3-methyl-2-buten-1-yl)adenine 
Name: (E)-2-methyl-4-(7H-purin-6-ylamino)but-2-en-1-ol
Class: CLASS1 Other
Class: CLASS2 Nucleoside
Class: CLASS3 Zeatin
Formula: C10H13N5O
Exact mass: 219.25
SMILES: CC(=CCNC1=NC=NC2=C1NC=N2)CO
InChI: InChI=1/C10H13N5O/c1-7(4-16)2-3-11-9-8-10(13-5-12-8)15-6-14-9/h2,5-6,16H,3-4H2,1H3,(H2,11,12,13,14,15)/b7-2+/f/h11-12H
Instrument: Q-Tof Premier, Waters
Ion type: [M-H]-
Precursor m/z: 218.1042
m/z	relative intensity
92.0255	92
107.0365	135
117.021	113
132.0316	213
133.0397	717
134.0473	999
188.0943	237
200.0939	348
218.1042	988
