Mass spectrum: gamma-Linolenic acid; MS2; Q-Tof; [M-H]-
Name: gamma-Linolenic acid
Name: cis,cis,cis-6,9,12-Octadecatrienoic acid
Name: gamolenic acid
Name: 6Z,9Z,12Z-Octadecatrienoic Acid
Name: (6Z,9Z,12Z)-octadeca-6,9,12-trienoic acid
Class: CLASS1 Other
Class: CLASS2 Carboxylic acid
Class: CLASS3 Linolenic acid
Formula: C18H30O2
Exact mass: 278.43
SMILES: CCCCCC=CCC=CCC=CCCCCC(=O)O
InChI: InChI=1/C18H30O2/c1-2-3-4-5-6-7-8-9-10-11-12-13-14-15-16-17-18(19)20/h6-7,9-10,12-13H,2-5,8,11,14-17H2,1H3,(H,19,20)/b7-6-,10-9-,13-12-/f/h19H
Instrument: Q-Tof Premier, Waters
Ion type: [M-H]-
Precursor m/z: 277.21677
m/z	relative intensity
164.9045	33
233.2223	47
277.2168	999
