Mass spectrum: DL-beta-Aminobutyric acid; MS2; Q-Tof; [M-H]-
Name: DL-beta-Aminobutyric acid
Name: BABA
Name: DL-3-Aminobutyric acid
Name: 3-Aminobutanoic acid
Name: (3S)-3-aminobutanoic acid
Class: CLASS1 Other
Class: CLASS2 Carboxylic acid
Class: CLASS3 Butanoic acid
Formula: C4H9NO2
Exact mass: 103.1
SMILES: CC(CC(=O)O)N
InChI: InChI=1/C4H9NO2/c1-3(5)2-4(6)7/h3H,2,5H2,1H3,(H,6,7)/t3-/m0/s1/f/h6H
Instrument: Q-Tof Premier, Waters
Ion type: [M-H]-
Precursor m/z: 102.05553
m/z	relative intensity
102.0555	999
