Mass spectrum: Homogentisic acid; MS2; Q-Tof; [M-H]-
Name: Homogentisic acid
Name: 2,5-DHPOP
Name: Homogentisate
Name: Homogentisinic acid
Name: 2,5-Dihydroxyphenylacetate
Name: 2,5-Dihydroxyphenylacetic acid
Name: Alcapton
Name: 2,5-Dihydroxybenzeneacetic acid
Name: 2-(2,5-dihydroxyphenyl)acetic acid
Class: CLASS1 Other
Class: CLASS2 Other
Class: CLASS3 Homogentisic acid
Formula: C8H8O4
Exact mass: 168.15
SMILES: C1=CC(=C(C=C1O)CC(=O)O)O
InChI: InChI=1/C8H8O4/c9-6-1-2-7(10)5(3-6)4-8(11)12/h1-3,9-10H,4H2,(H,11,12)/f/h11H
Instrument: Q-Tof Premier, Waters
Ion type: [M-H]-
Precursor m/z: 167.03446
m/z	relative intensity
108.0212	196
122.0368	588
123.0444	999
167.0345	89
