Mass spectrum: DL-3-Aminoisobutyric acid ; MS2; Q-Tof; [M-H]-
Name: DL-3-Aminoisobutyric acid 
Name: BAIB
Name: 3-Aminoisobutyrate
Name: beta-Aminoisobutyric acid
Name: 3-Aminoisobutanoate
Name: 2-Methyl-beta-alanine
Name: 3-Amino-2-methylpropanoate
Name: alpha-Methyl-beta-alanine
Name: 3-amino-2-methylpropanoic acid
Class: CLASS1 Other
Class: CLASS2 Carboxylic acid
Class: CLASS3 Succinic acid
Formula: C4H9NO2
Exact mass: 103.12
SMILES: CC(CN)C(=O)O
InChI: InChI=1/C4H9NO2/c1-3(2-5)4(6)7/h3H,2,5H2,1H3,(H,6,7)/f/h6H
Instrument: Q-Tof Premier, Waters
Ion type: [M-H]-
Precursor m/z: 102.05553
m/z	relative intensity
73.0306	331
102.0555	999
