Mass spectrum: Quercetin-3,7-O-alpha-L-dirhamnopyranoside; MS2; Q-Tof; [M-H]-
Name: Quercetin-3,7-O-alpha-L-dirhamnopyranoside
Name: Quer-3-Rha-7-Rha
Name: Quercetin-3-rhamnoside-7-rhamnoside
Class: CLASS1 Flavonoid
Class: CLASS2 Flavonol
Class: CLASS3 Quercetin glycoside
Formula: C27H30O15
Exact mass: 594.16
SMILES: c
InChI: 1/C4H9NO2/c5-3-1-2-4(6)7/h1-3,5H2,(H,6,7)/f/h6H
Instrument: Q-Tof Premier, Waters
Ion type: [M-H]-
Precursor m/z: 593.15064
m/z	relative intensity
283.0244	65
285.0393	93
299.0185	661
300.0269	93
301.0345	999
430.0894	69
446.0841	933
447.093	507
593.1506	78
